version 2
run General-0-20191121-16:07:30-20304
attr configname General
attr datetime 20191121-16:07:30
attr experiment General
attr inifile omnetpp.ini
attr iterationvars $0=1.5
attr iterationvarsf 1.5-
attr measurement $0=1.5
attr network Bar
attr processid 20304
attr repetition 0
attr replication #0
attr resultdir results
attr runnumber 0
attr seedset 0
param **.waitress.sendInitialMessage true
param **.kitchen.T 1.5
param **.kitchen.policy 1

vector 0 Bar.waitress serviceTime:vector ETV
attr "" ""
attr source orderCompleted
attr title "serviceTime, vector"
vector 1 Bar.kitchen.owner interarrivalTime:vector ETV
attr "" ""
attr source arrival
1	8	2.346	2.146
1	11	4.154	1.808
1	17	5.789	1.635
1	22	7.06	1.271
1	26	8.998	1.938
1	32	10.311	1.313
1	41	12.986	2.675
1	50	15.877	2.891
1	56	17.027	1.15
1	62	19.402	2.375
1	66	20.989	1.587
1	71	22.693	1.704
1	80	25.47	2.777
1	83	25.683	0.213
1	87	25.944	0.261
1	88	26.005	0.061
1	100	28.503	2.498
1	110	30.837	2.334
1	113	33.447	2.61
1	122	36.383	2.936
1	125	38.78	2.397
1	131	40.164	1.384
1	137	42.506	2.342
1	142	42.861	0.355
1	149	44.781	1.92
1	152	45.211	0.43
1	158	48.045	2.834
1	164	49.611	1.566
1	170	50.855	1.244
1	176	51.649	0.794
1	185	53.972	2.323
1	194	55.34	1.368
1	198	57.045	1.705
1	199	57.101	0.055999999999997
1	212	58.954	1.853
1	218	60.79	1.836
1	224	62.641	1.851
1	230	65.472	2.831
1	236	67.517	2.045
1	239	68.596	1.079
1	242	69.907	1.311
1	252	72	2.093
1	255	72.181	0.181
1	263	74.181	2
1	269	76.193	2.012
1	272	76.824	0.631
1	275	77.211	0.387
1	284	78.157	0.946
1	290	79.248	1.091
1	296	80.959	1.711
1	303	82.275	1.316
1	314	85.24	2.965
1	317	85.546	0.30600000000001
1	320	86.173	0.627
1	323	86.657	0.48399999999999
1	329	88.616	1.959
1	332	89.376	0.76000000000001
1	338	90.775	1.399
1	341	91.508	0.73299999999999
1	344	91.985	0.477
1	351	92.316	0.331
1	362	94.285	1.969
1	367	94.7	0.41500000000001
1	371	95.29	0.59
1	377	96.396	1.106
1	385	98.859	2.463
1	389	99.15	0.291
1	398	101.664	2.514
1	401	101.952	0.288
1	407	104.881	2.929
1	413	106.287	1.406
1	419	109.217	2.93
1	425	111.032	1.815
1	435	113.25	2.218
1	437	113.368	0.11800000000001
1	443	114.216	0.848
1	446	114.577	0.36099999999999
1	455	115.465	0.88800000000001
1	458	115.821	0.35599999999999
1	466	116.775	0.95400000000001
1	474	118.018	1.243
1	476	118.21	0.19200000000001
1	485	120.287	2.077
1	494	121.987	1.7
1	497	122.783	0.79599999999999
1	503	124.353	1.57
1	506	124.635	0.282
1	512	126.363	1.728
1	518	129.151	2.788
1	524	130.107	0.95599999999999
1	533	132.109	2.002
1	538	132.504	0.39499999999998
1	545	134.653	2.149
1	549	135.521	0.86800000000002
1	554	136.071	0.54999999999998
1	564	137.831	1.76
1	565	137.891	0.060000000000002
1	576	140.378	2.487
1	577	140.392	0.013999999999982
1	587	142.425	2.033
1	595	143.235	0.81
1	602	145.441	2.206
1	608	148.328	2.887
1	611	149.074	0.74600000000001
1	622	150.802	1.728
1	629	152.578	1.776
1	638	154.295	1.717
1	642	154.964	0.66899999999998
1	650	157.822	2.858
1	653	159.163	1.341
1	659	161.702	2.539
1	668	163.8	2.098
1	673	164.692	0.892
1	683	167.133	2.441
1	686	168.323	1.19
1	695	170.966	2.643
1	701	172.71	1.744
1	710	175.355	2.645
1	716	177.433	2.078
1	719	179.609	2.176
1	725	181.113	1.504
1	731	183.981	2.868
1	739	185.913	1.932
1	746	187.185	1.272
1	753	189.004	1.819
1	754	189.062	0.058000000000021
1	758	189.967	0.905
1	767	191.948	1.981
1	773	192.818	0.87
1	782	194.672	1.854
1	786	195.958	1.286
1	791	196.364	0.40600000000001
1	794	197.259	0.89500000000001
1	803	198.969	1.71
1	809	200.742	1.773
1	818	202.465	1.723
1	823	204.425	1.96
1	830	206.381	1.956
1	833	207.675	1.294
1	842	210.365	2.69
1	848	211.468	1.103
1	854	212.776	1.308
1	860	215.452	2.676
1	863	217.871	2.419
1	872	219.983	2.112
1	875	220.284	0.30099999999999
1	884	223.042	2.758
1	890	225.185	2.143
1	896	228.182	2.997
1	899	228.63	0.44799999999998
1	905	231.234	2.604
1	911	231.721	0.48699999999999
1	917	233.568	1.847
1	920	233.939	0.37099999999998
1	932	236.483	2.544
1	935	238.905	2.422
1	941	240.612	1.707
1	946	241.834	1.222
1	951	242.042	0.208
1	962	244.134	2.092
1	965	245.495	1.361
1	974	247.661	2.166
1	980	250.26	2.599
1	986	253.187	2.927
1	993	255.754	2.567
1	994	255.789	0.034999999999997
1	1003	256.869	1.08
1	1007	259.059	2.19
1	1013	259.574	0.51499999999999
1	1017	261.137	1.563
1	1019	261.3	0.16300000000001
1	1023	261.9	0.59999999999997
1	1024	261.956	0.05600000000004
1	1037	264.337	2.381
1	1045	265.009	0.67200000000003
1	1054	266.045	1.036
1	1062	268.829	2.784
1	1068	270.942	2.113
1	1069	271.038	0.096000000000004
1	1073	271.532	0.49399999999997
1	1079	273.396	1.864
1	1085	275.128	1.732
1	1094	275.842	0.714
1	1100	278.645	2.803
1	1106	280.487	1.842
1	1115	282.094	1.607
1	1118	283.864	1.77
1	1124	286.054	2.19
1	1130	286.99	0.93599999999998
1	1133	288.185	1.195
1	1136	288.815	0.63
1	1142	289.374	0.55900000000003
1	1154	292.207	2.833
1	1163	294.426	2.219
1	1168	295.897	1.471
1	1172	296.579	0.68200000000002
1	1176	297.342	0.76299999999998
1	1181	297.516	0.17400000000004
1	1190	298.819	1.303
1	1196	299.754	0.935
1	1205	301.843	2.089
1	1211	302.976	1.133
1	1215	303.515	0.53899999999999
1	1216	303.589	0.074000000000012
1	1220	303.791	0.202
1	1226	305.829	2.038
1	1229	307.19	1.361
1	1236	308.8	1.61
1	1245	311.49	2.69
1	1253	314.461	2.971
1	1256	315.112	0.65100000000001
1	1265	317.101	1.989
1	1269	317.891	0.79000000000002
1	1270	317.953	0.062000000000012
1	1285	320.228	2.275
1	1291	321.188	0.95999999999998
1	1296	322.338	1.15
1	1301	324.103	1.765
1	1307	326.596	2.493
1	1316	328.483	1.887
1	1322	331.101	2.618
1	1328	331.922	0.82100000000003
1	1340	334.316	2.394
1	1343	334.873	0.55699999999996
1	1351	337.731	2.858
1	1355	339.793	2.062
1	1361	340.44	0.64699999999999
1	1370	343.282	2.842
1	1373	345.475	2.193
1	1379	346.237	0.762
1	1385	346.877	0.63999999999999
1	1392	348.432	1.555
1	1393	348.509	0.076999999999998
1	1399	349.131	0.62200000000001
1	1406	350.405	1.274
1	1412	351.528	1.123
1	1418	352.919	1.391
1	1421	353.752	0.83300000000003
1	1430	355.512	1.76
1	1439	358.104	2.592
1	1445	358.457	0.35300000000001
1	1448	360.009	1.552
1	1451	360.405	0.39600000000002
1	1460	362.556	2.151
1	1469	363.744	1.188
1	1475	365.44	1.696
1	1478	365.99	0.55000000000001
1	1481	366.425	0.435
1	1493	367.889	1.464
1	1499	368.956	1.067
1	1508	371.777	2.821
1	1512	374.073	2.296
1	1520	376.319	2.246
1	1526	379.03	2.711
1	1529	379.28	0.25
1	1538	380.937	1.657
1	1541	382.69	1.753
1	1548	385.576	2.886
1	1556	386.452	0.87599999999998
1	1559	387.174	0.72200000000004
1	1565	387.475	0.30099999999999
1	1567	387.524	0.048999999999978
1	1580	390.313	2.789
1	1585	392.323	2.01
1	1592	394.678	2.355
1	1595	395.523	0.84500000000003
1	1600	397.282	1.759
1	1603	397.474	0.19200000000001
1	1610	398.931	1.457
1	1616	401.863	2.932
1	1625	404.493	2.63
1	1628	405.507	1.014
1	1637	408.392	2.885
1	1640	409.087	0.69499999999999
1	1652	411.935	2.848
1	1656	414.759	2.824
1	1664	417.157	2.398
1	1667	419.048	1.891
1	1676	421.671	2.623
1	1679	422.55	0.87900000000002
1	1688	425.097	2.547
1	1692	426.951	1.854
1	1693	426.991	0.039999999999964
1	1703	428.033	1.042
1	1706	428.477	0.44400000000002
1	1712	431.422	2.945
1	1715	432.857	1.435
1	1721	434.349	1.492
1	1727	436.267	1.918
1	1733	437.373	1.106
1	1736	437.784	0.411
1	1748	440.25	2.466
1	1751	440.82	0.56999999999999
1	1760	442.354	1.534
1	1766	443.027	0.673
1	1771	443.321	0.29400000000004
1	1781	445.908	2.587
1	1790	448.827	2.919
1	1796	451.71	2.883
1	1802	454.43	2.72
1	1805	456.752	2.322
1	1811	457.751	0.99900000000002
1	1814	457.994	0.24299999999999
1	1821	459.216	1.222
1	1826	459.913	0.697
1	1830	460.31	0.39699999999999
1	1834	460.47	0.16000000000003
1	1848	462.647	2.177
1	1849	462.681	0.033999999999992
1	1856	464.993	2.312
1	1862	465.434	0.44100000000003
1	1865	465.673	0.23899999999998
1	1868	465.942	0.26900000000001
1	1877	467.958	2.016
1	1883	468.694	0.73599999999999
1	1889	469.956	1.262
1	1894	471.628	1.672
1	1901	474.21	2.5820000000001
1	1907	476.391	2.181
1	1913	477.202	0.81099999999998
1	1917	477.596	0.39400000000001
1	1921	477.762	0.166
1	1928	478.667	0.90500000000003
1	1937	479.453	0.786
1	1943	480.821	1.368
1	1952	482.871	2.05
1	1963	484.958	2.087
1	1967	485.809	0.851
1	1973	486.949	1.14
1	1976	487.492	0.54300000000001
1	1986	489.858	2.366
1	1988	490.029	0.17099999999999
1	1997	492.12	2.091
1	2004	494.456	2.336
1	2012	496.788	2.332
1	2015	497.566	0.77800000000002
1	2018	498.687	1.121
1	2027	500.45	1.763
1	2033	501.268	0.81800000000004
1	2042	502.381	1.113
1	2045	502.972	0.59100000000001
1	2052	504.352	1.38
1	2054	504.486	0.13399999999996
1	2060	506.885	2.399
1	2063	507.116	0.23099999999999
1	2069	508.673	1.557
1	2075	509.593	0.92000000000002
1	2084	511.326	1.733
1	2093	514.204	2.878
1	2103	516.141	1.9369999999999
1	2105	516.247	0.10599999999999
1	2111	517.538	1.2910000000001
1	2117	519.068	1.53
1	2123	520.677	1.609
1	2132	522.721	2.044
1	2138	523.554	0.83299999999997
1	2141	523.941	0.38700000000006
1	2144	525.119	1.178
1	2156	527.988	2.869
1	2160	528.549	0.56099999999992
1	2168	531.261	2.712
1	2174	532.892	1.6310000000001
1	2177	534.263	1.371
1	2186	536.909	2.646
1	2189	538.285	1.376
1	2198	540.458	2.173
1	2201	541.655	1.197
1	2207	544.367	2.712
1	2216	546.437	2.0700000000001
1	2222	548.536	2.099
1	2225	549.519	0.98299999999995
1	2234	551.789	2.27
1	2237	553.697	1.908
1	2246	554.417	0.72000000000003
1	2249	554.899	0.48199999999997
1	2255	557.288	2.389
1	2264	560.165	2.877
1	2270	561.539	1.374
1	2276	563.312	1.773
1	2282	565.885	2.573
1	2285	567.257	1.3720000000001
1	2291	570.113	2.856
1	2300	571.84	1.727
1	2306	574.302	2.462
1	2310	577.029	2.727
1	2318	579.476	2.447
1	2321	579.954	0.47800000000007
1	2327	581.841	1.8869999999999
1	2337	583.036	1.1950000000001
1	2339	583.224	0.18799999999999
1	2342	584.496	1.2719999999999
1	2347	585.272	0.77600000000007
1	2355	587.819	2.5469999999999
1	2357	587.919	0.10000000000002
1	2365	590.796	2.8770000000001
1	2370	591.862	1.0659999999999
1	2380	592.932	1.0700000000001
1	2382	592.981	0.048999999999978
1	2387	593.537	0.55600000000004
1	2393	594.741	1.204
1	2405	597.529	2.788
1	2408	597.828	0.29899999999998
1	2414	600.664	2.836
1	2423	603.272	2.6080000000001
1	2429	604.634	1.362
1	2438	605.614	0.98000000000002
1	2444	606.312	0.69799999999998
1	2452	608.155	1.843
1	2453	608.254	0.099000000000046
1	2455	608.301	0.047000000000025
1	2462	609.587	1.2859999999999
1	2465	609.791	0.20400000000006
1	2468	610.547	0.75599999999997
1	2474	611.21	0.66300000000001
1	2480	611.97	0.75999999999999
1	2484	612.363	0.39300000000003
1	2485	612.399	0.035999999999945
1	2492	612.745	0.346
1	2501	614.6	1.855
1	2510	617.523	2.923
1	2522	620.494	2.971
1	2528	621.721	1.227
1	2536	622.21	0.48900000000003
1	2543	624.126	1.9159999999999
1	2549	625.597	1.471
1	2556	628.565	2.9680000000001
1	2558	628.761	0.19599999999991
1	2567	631.111	2.35
1	2573	631.976	0.86500000000001
1	2579	632.7	0.72400000000005
1	2587	634.688	1.9879999999999
1	2591	635.426	0.73800000000006
1	2600	637.424	1.9979999999999
1	2603	638.976	1.552
1	2609	640.248	1.272
1	2612	641.912	1.664
1	2618	642.773	0.86099999999999
1	2628	644.893	2.12
1	2633	646.138	1.245
1	2636	647.22	1.082
1	2646	649.706	2.486
1	2652	652.481	2.775
1	2654	652.619	0.13800000000003
1	2660	653.317	0.69799999999998
1	2666	654.363	1.046
1	2678	656.808	2.4449999999999
1	2682	659.764	2.956
1	2690	662.671	2.907
1	2696	665.386	2.7149999999999
1	2699	666.276	0.8900000000001
1	2705	669.252	2.976
1	2710	670	0.74799999999993
1	2715	670.318	0.31799999999998
1	2726	673.171	2.8530000000001
1	2729	673.871	0.69999999999993
1	2736	675.94	2.0690000000001
1	2738	676.115	0.17499999999995
1	2748	678.307	2.192
1	2753	680.952	2.645
1	2762	681.769	0.81700000000001
1	2765	682.906	1.1370000000001
1	2773	684.029	1.1229999999999
1	2780	686.275	2.246
1	2783	686.988	0.71300000000008
1	2788	687.504	0.51599999999996
1	2792	688.852	1.348
1	2798	689.765	0.91300000000001
1	2807	692.283	2.518
1	2810	692.996	0.71299999999997
1	2819	694.503	1.5070000000001
1	2825	697.331	2.828
1	2831	699.233	1.902
1	2840	701.835	2.602
1	2846	704.656	2.821
1	2852	706.908	2.252
1	2858	709.007	2.099
1	2864	711.911	2.904
1	2870	714.894	2.9829999999999
1	2876	716.249	1.355
1	2879	716.462	0.21299999999997
1	2882	717.34	0.87800000000004
1	2885	717.797	0.45699999999999
1	2891	719.049	1.252
1	2894	719.443	0.39400000000001
1	2903	721.255	1.812
1	2906	722.403	1.148
1	2921	725.089	2.686
1	2927	727.992	2.9029999999999
1	2935	729.633	1.6410000000001
1	2942	730.457	0.82399999999996
1	2945	732.234	1.777
1	2954	734.924	2.6899999999999
1	2960	736.144	1.22
1	2966	737.8	1.6560000000001
1	2969	738.615	0.81499999999994
1	2975	739.981	1.366
1	2980	741.186	1.205
1	2984	741.931	0.745
1	2993	743.449	1.518
1	2996	744.38	0.93099999999993
1	3000	745.499	1.119
1	3008	747.074	1.575
1	3014	749.326	2.252
1	3021	750.327	1.001
1	3028	753.099	2.772
1	3039	755.686	2.587
1	3041	755.832	0.14599999999996
1	3046	756.593	0.76099999999997
1	3050	757.931	1.3380000000001
1	3053	758.245	0.31399999999996
1	3061	759.29	1.045
1	3067	761.51	2.22
1	3071	763.552	2.042
1	3080	765.419	1.867
1	3089	767.551	2.1320000000001
1	3092	768.166	0.61500000000001
1	3098	769.191	1.025
1	3101	771.22	2.029
1	3107	773.858	2.638
1	3113	775.489	1.631
1	3118	776.337	0.84799999999996
1	3121	776.428	0.091000000000008
1	3135	778.559	2.131
1	3136	778.583	0.024000000000001
1	3142	779.701	1.1180000000001
1	3151	781.293	1.592
1	3161	784.059	2.766
1	3165	784.327	0.26800000000003
1	3172	785.545	1.2180000000001
1	3174	785.618	0.072999999999979
1	3185	786.646	1.028
1	3194	788.513	1.867
1	3197	789.35	0.83699999999999
1	3203	789.979	0.62900000000002
1	3206	790.326	0.34699999999998
1	3212	792.057	1.731
1	3218	794.143	2.086
1	3227	796.159	2.016
1	3237	799.006	2.847
1	3238	799.014	0.0080000000000382
1	3245	800.956	1.942
1	3254	802.757	1.801
1	3260	804.523	1.766
1	3264	807.411	2.888
1	3265	807.462	0.050999999999931
1	3272	809.551	2.0890000000001
1	3278	811.992	2.4409999999999
1	3286	813.521	1.5290000000001
1	3290	814.523	1.002
1	3297	816.896	2.373
1	3304	817.188	0.29199999999992
1	3308	818.514	1.326
1	3314	820.074	1.5600000000001
1	3320	822.156	2.082
1	3323	822.429	0.27299999999991
1	3326	823.112	0.68299999999999
1	3335	824.343	1.231
1	3342	826.213	1.87
1	3350	828.874	2.6610000000001
1	3353	830.73	1.856
1	3357	831.13	0.39999999999998
1	3368	834.072	2.942
1	3377	836.687	2.615
1	3382	838.195	1.508
1	3389	840.962	2.7669999999999
1	3398	842.586	1.624
1	3404	845.356	2.77
1	3410	847.846	2.49
1	3416	850.751	2.905
1	3423	853.51	2.759
1	3425	853.618	0.10800000000006
1	3432	854.142	0.524
1	3440	855.309	1.1669999999999
1	3446	858.165	2.856
1	3450	859.065	0.90000000000009
1	3455	859.546	0.48099999999999
1	3461	862.205	2.659
1	3464	863.544	1.3389999999999
1	3473	866.268	2.724
1	3476	866.749	0.48099999999999
1	3485	868.732	1.9829999999999
1	3494	870.053	1.321
1	3497	870.282	0.22900000000004
1	3505	872.371	2.0889999999999
1	3510	873.113	0.74200000000008
1	3513	873.232	0.11899999999991
1	3516	873.412	0.18000000000006
1	3519	873.595	0.18299999999999
1	3530	876.318	2.723
1	3536	878.538	2.22
1	3548	881.232	2.694
1	3554	883.25	2.018
1	3560	884.837	1.587
1	3563	885.75	0.91300000000001
1	3570	888.744	2.994
1	3576	889.831	1.087
1	3584	891.243	1.412
1	3587	892.378	1.135
1	3595	895.317	2.939
1	3602	895.841	0.524
1	3605	896.825	0.98400000000004
1	3610	898.866	2.0409999999999
1	3613	899.056	0.19000000000005
1	3624	900.878	1.822
1	3629	902.311	1.433
1	3632	903.163	0.85199999999998
1	3640	903.878	0.71500000000003
1	3647	905.422	1.544
1	3653	906.526	1.104
1	3656	907.896	1.37
1	3665	908.908	1.0119999999999
1	3671	911.819	2.9110000000001
1	3674	912.219	0.39999999999998
1	3677	912.509	0.28999999999996
1	3686	913.539	1.03
1	3695	915.312	1.773
1	3701	917.29	1.978
1	3704	918.482	1.192
1	3715	921.48	2.998
1	3722	922.536	1.056
1	3725	924.7	2.164
1	3734	926.613	1.913
1	3737	929.052	2.439
1	3746	931.981	2.929
1	3752	934.65	2.669
1	3758	936.944	2.2940000000001
1	3761	939.039	2.0949999999999
1	3769	940.045	1.0060000000001
1	3774	940.488	0.44299999999998
1	3776	940.676	0.18799999999999
1	3784	941.402	0.726
1	3791	942.699	1.297
1	3800	944.265	1.5659999999999
1	3806	946.584	2.3190000000001
1	3811	949.46	2.876
1	3815	949.812	0.35199999999998
1	3819	950.133	0.32100000000003
1	3827	951.902	1.769
1	3836	954.138	2.236
1	3839	956.682	2.544
1	3845	959.489	2.807
1	3854	962.439	2.9499999999999
1	3857	963.638	1.1990000000001
1	3863	964.779	1.141
1	3866	965.222	0.44299999999998
1	3874	967.277	2.0550000000001
1	3878	969.247	1.97
1	3889	971.833	2.5859999999999
1	3893	972.125	0.29200000000003
1	3899	973.618	1.4930000000001
1	3908	975.361	1.7429999999999
1	3911	976.086	0.72500000000002
1	3914	976.593	0.50700000000006
1	3927	979.172	2.579
1	3929	979.348	0.17600000000004
1	3932	980.76	1.4119999999999
1	3935	981.108	0.34800000000007
1	3943	982.479	1.371
1	3956	985.419	2.9399999999999
1	3959	986.69	1.2710000000001
1	3965	989.261	2.5709999999999
1	3968	989.613	0.35200000000009
1	3980	990.427	0.81399999999996
1	3983	991.638	1.211
1	3989	992.837	1.199
1	3998	994.851	2.014
1	4004	995.885	1.034
1	4010	998.026	2.1410000000001
1	4013	999.944	1.918
1	4019	1001.141	1.197
1	4026	1002.436	1.295
1	4034	1004.28	1.8439999999999
1	4037	1004.49	0.21000000000004
1	4046	1006.957	2.467
1	4049	1008.917	1.96
1	4055	1011.096	2.179
1	4061	1012.707	1.611
1	4064	1013.038	0.33100000000002
1	4073	1014.253	1.215
1	4079	1015.469	1.216
1	4083	1016.432	0.96299999999997
1	4084	1016.522	0.090000000000032
1	4094	1018.734	2.212
1	4097	1019.063	0.32899999999995
1	4106	1020.882	1.8190000000001
1	4112	1022.992	2.11
1	4123	1024.896	1.9039999999999
1	4130	1027.773	2.877
1	4135	1028.083	0.31000000000017
1	4140	1030.685	2.6019999999999
1	4141	1030.773	0.087999999999965
1	4148	1032.378	1.605
1	4157	1033.591	1.2130000000002
1	4160	1035.164	1.5729999999999
1	4166	1036.259	1.095
1	4170	1036.831	0.57200000000012
1	4171	1036.888	0.056999999999789
1	4179	1038.442	1.5540000000001
1	4184	1040.97	2.528
1	4190	1042.09	1.1199999999999
1	4193	1042.759	0.6690000000001
1	4196	1043.001	0.24199999999996
1	4199	1043.257	0.25600000000009
1	4204	1043.921	0.66399999999999
1	4210	1044.221	0.29999999999995
1	4219	1045.016	0.79500000000007
1	4225	1045.214	0.19799999999987
1	4228	1045.411	0.19700000000012
1	4238	1047.98	2.569
1	4241	1048.466	0.4860000000001
1	4252	1050.145	1.6789999999999
1	4262	1052.465	2.3199999999999
1	4267	1053.834	1.3690000000001
1	4271	1054.294	0.46000000000004
1	4274	1054.893	0.59899999999993
1	4282	1056.192	1.299
1	4289	1057.777	1.585
1	4294	1058.825	1.048
1	4304	1061.169	2.3440000000001
1	4313	1063.422	2.2529999999999
1	4323	1066.204	2.7819999999999
1	4324	1066.291	0.086999999999989
1	4338	1068.978	2.6870000000001
1	4344	1070.156	1.1779999999999
1	4352	1072.791	2.635
1	4355	1074.863	2.0720000000001
1	4364	1077.825	2.962
1	4370	1080.103	2.278
1	4373	1081.197	1.0940000000001
1	4376	1082.7	1.5029999999999
1	4382	1083.829	1.1289999999999
1	4390	1084.924	1.095
1	4394	1085.707	0.78300000000013
1	4403	1087.195	1.4879999999998
1	4412	1089.24	2.0450000000001
1	4417	1090.072	0.83200000000011
1	4421	1091.645	1.5729999999999
1	4426	1091.997	0.35200000000009
1	4434	1092.477	0.48000000000002
1	4436	1092.617	0.13999999999987
1	4449	1095.529	2.912
1	4450	1095.541	0.011999999999944
1	4454	1096.077	0.53600000000006
1	4460	1097.916	1.8389999999999
1	4463	1098.16	0.24400000000014
1	4472	1100.806	2.646
1	4478	1102.965	2.1589999999999
1	4487	1105.864	2.8990000000001
1	4490	1107.387	1.5229999999999
1	4495	1108.288	0.90100000000007
1	4502	1109.937	1.6490000000001
1	4511	1112.729	2.7919999999999
1	4516	1114.291	1.5619999999999
1	4522	1115.093	0.80200000000013
1	4529	1117.725	2.6320000000001
1	4536	1118.841	1.116
1	4537	1118.845	0.0039999999999054
1	4544	1119.588	0.74299999999994
1	4552	1120.543	0.95500000000015
1	4559	1123.119	2.5759999999998
1	4565	1124.495	1.3760000000002
1	4571	1125.829	1.3339999999998
1	4574	1126.837	1.008
1	4585	1129.479	2.6420000000001
1	4592	1132.314	2.835
1	4598	1135.29	2.9759999999999
1	4601	1136.42	1.1300000000001
1	4610	1139.318	2.8979999999999
1	4613	1141.694	2.376
1	4622	1143.721	2.027
1	4625	1144.456	0.73500000000013
1	4628	1145.105	0.64899999999989
1	4634	1145.603	0.49800000000005
1	4643	1148.371	2.768
1	4646	1149.253	0.88199999999983
1	4652	1150.612	1.3590000000002
1	4656	1152.094	1.482
1	4669	1154.429	2.335
1	4676	1156.962	2.5329999999999
1	4679	1157.379	0.41700000000014
1	4682	1158.66	1.2809999999999
1	4691	1161.189	2.529
1	4700	1163.643	2.454
1	4703	1163.95	0.30700000000002
1	4709	1164.419	0.46900000000005
1	4712	1165.332	0.91300000000001
1	4715	1165.558	0.22599999999989
1	4724	1166.832	1.2740000000001
1	4729	1167.155	0.32299999999987
1	4736	1168.86	1.7050000000002
1	4742	1169.6	0.74000000000001
1	4748	1171.389	1.789
1	4753	1171.742	0.35299999999984
1	4763	1174.67	2.9280000000001
1	4769	1177.468	2.798
1	4772	1178.643	1.175
1	4780	1179.37	0.72700000000009
1	4784	1180.121	0.75099999999998
1	4791	1181.571	1.4499999999998
1	4793	1181.691	0.12000000000012
1	4802	1183.61	1.9190000000001
1	4811	1184.835	1.2249999999999
1	4815	1185.967	1.1320000000001
1	4820	1188.395	2.4279999999999
1	4826	1190.522	2.127
1	4835	1193.385	2.8630000000001
1	4838	1194.441	1.056
1	4850	1197.134	2.693
1	4856	1199.444	2.3099999999999
1	4859	1200.516	1.0720000000001
1	4868	1202.381	1.865
1	4871	1203.247	0.86599999999999
1	4880	1205.87	2.623
1	4883	1206.207	0.33699999999999
1	4889	1206.844	0.63699999999994
1	4897	1207.393	0.54899999999998
1	4903	1208.602	1.2090000000001
1	4910	1210.838	2.2359999999999
1	4916	1212.419	1.5810000000001
1	4920	1213.882	1.463
1	4921	1213.884	0.0019999999999527
1	4932	1215.16	1.2760000000001
1	4934	1215.351	0.19100000000003
1	4940	1215.976	0.625
1	4952	1218.773	2.797
1	4955	1219.419	0.64599999999996
1	4964	1221.994	2.5749999999998
1	4970	1224.403	2.4090000000001
1	4973	1224.88	0.47700000000009
1	4980	1226.697	1.817
1	4985	1227.044	0.34699999999998
1	4991	1229.228	2.184
1	4997	1231.14	1.912
1	5003	1233.576	2.4359999999999
1	5009	1235.014	1.4380000000001
1	5019	1237.759	2.7449999999999
1	5021	1237.907	0.14799999999991
1	5030	1238.786	0.87900000000013
1	5036	1240.931	2.145
1	5039	1242.185	1.2539999999999
1	5045	1242.704	0.51900000000001
1	5048	1243.026	0.32200000000012
1	5057	1245.478	2.452
1	5063	1246.897	1.4189999999999
1	5071	1249.544	2.6470000000002
1	5078	1251.744	2.1999999999998
1	5081	1252.973	1.229
1	5084	1254.094	1.1210000000001
1	5092	1255.641	1.547
1	5099	1258.308	2.6669999999999
1	5109	1260.52	2.212
1	5110	1260.535	0.0150000000001
1	5114	1262.617	2.0819999999999
1	5123	1265.376	2.759
1	5129	1267.507	2.1310000000001
1	5135	1268.038	0.53099999999995
1	5141	1269.489	1.451
1	5144	1269.91	0.42100000000005
1	5149	1270.987	1.077
1	5159	1273.798	2.8109999999999
1	5165	1276.568	2.77
1	5172	1277.417	0.84899999999993
1	5177	1278.436	1.019
1	5183	1280.237	1.8010000000002
1	5192	1283.127	2.8899999999999
1	5195	1283.57	0.44299999999998
1	5198	1284.341	0.77100000000019
1	5210	1286.962	2.6209999999999
1	5216	1288.438	1.4760000000001
1	5222	1291.135	2.6969999999999
1	5225	1291.692	0.55700000000002
1	5231	1293.29	1.598
1	5237	1294.269	0.97900000000004
1	5240	1295.219	0.95000000000005
1	5246	1296.56	1.3409999999999
1	5255	1297.859	1.299
1	5258	1298.931	1.0720000000001
1	5267	1301.676	2.7449999999999
1	5276	1303.871	2.1950000000002
1	5279	1306.054	2.183
1	5286	1306.924	0.86999999999989
1	5294	1308.657	1.7329999999999
1	5300	1310.995	2.3380000000002
1	5306	1313.382	2.3869999999999
1	5311	1314.416	1.0339999999999
1	5317	1316.729	2.3130000000001
1	5322	1318.937	2.2080000000001
1	5327	1319.362	0.42499999999995
1	5331	1321.96	2.598
1	5336	1323.284	1.3240000000001
1	5343	1324.743	1.4589999999998
1	5351	1326.088	1.345
1	5359	1327.792	1.704
1	5365	1329.656	1.864
1	5372	1331.151	1.4950000000001
1	5378	1333.751	2.5999999999999
1	5384	1335.634	1.883
1	5387	1336.838	1.204
1	5390	1338.088	1.25
1	5399	1340.521	2.433
1	5405	1341.566	1.0450000000001
1	5409	1342.2	0.63400000000001
1	5411	1342.378	0.17799999999988
1	5423	1345.006	2.6280000000002
1	5432	1347.762	2.7559999999999
1	5435	1348.122	0.36000000000013
1	5441	1349.125	1.0029999999999
1	5444	1349.651	0.52600000000007
1	5447	1349.999	0.34799999999996
1	5454	1352.699	2.7
1	5456	1352.87	0.17100000000005
1	5468	1355.811	2.9409999999998
1	5471	1356.1	0.28900000000021
1	5483	1358.69	2.5899999999999
1	5492	1360.39	1.7
1	5495	1361.494	1.104
1	5498	1362.521	1.0269999999998
1	5510	1364.793	2.2720000000002
1	5513	1365.737	0.94399999999996
1	5516	1367.709	1.972
1	5522	1369.261	1.5519999999999
1	5528	1370.716	1.4550000000002
1	5534	1373.419	2.703
1	5543	1375.083	1.664
1	5552	1377.564	2.481
1	5558	1379.741	2.1769999999999
1	5561	1379.857	0.11599999999999
1	5569	1382.176	2.319
1	5573	1382.827	0.65100000000007
1	5580	1385.536	2.7090000000001
1	5582	1385.665	0.12899999999991
1	5588	1386.664	0.99900000000002
1	5591	1386.963	0.29899999999998
1	5600	1388.39	1.4270000000001
1	5606	1390.85	2.46
1	5611	1391.745	0.89499999999998
1	5615	1392.198	0.45299999999997
1	5621	1393.189	0.99099999999999
1	5628	1395.631	2.442
1	5633	1396.052	0.42100000000005
1	5639	1396.734	0.68199999999979
1	5642	1396.941	0.20700000000011
1	5651	1399.058	2.117
1	5657	1400.244	1.1860000000001
1	5660	1401.177	0.93299999999999
1	5669	1403.333	2.1559999999999
1	5672	1404.341	1.008
1	5681	1406.524	2.183
1	5690	1408.97	2.4459999999999
1	5693	1409.623	0.65300000000002
1	5702	1412.544	2.921
1	5705	1413.031	0.48699999999985
1	5711	1413.904	0.87300000000005
1	5714	1414.443	0.53899999999999
1	5720	1415.48	1.037
1	5727	1416.92	1.4400000000001
1	5735	1418.487	1.567
1	5741	1421.048	2.5609999999999
1	5747	1423.716	2.6680000000001
1	5751	1424.376	0.65999999999985
1	5758	1426.245	1.8690000000001
1	5765	1426.579	0.33399999999983
1	5771	1427.956	1.3770000000002
1	5777	1428.923	0.96699999999987
1	5783	1429.873	0.95000000000005
1	5792	1431.321	1.4480000000001
1	5798	1433.51	2.1889999999999
1	5801	1433.718	0.20800000000008
1	5813	1436.356	2.6379999999999
1	5822	1438.56	2.204
1	5825	1439.089	0.529
1	5834	1441.906	2.817
1	5837	1443.425	1.519
1	5846	1446.424	2.999
1	5849	1447.016	0.5920000000001
1	5855	1448.621	1.605
1	5859	1449.492	0.87099999999987
1	5867	1450.405	0.91300000000001
1	5873	1452.178	1.7730000000001
1	5879	1454.943	2.7649999999999
1	5888	1457.359	2.4159999999999
1	5894	1459.531	2.172
1	5900	1461.209	1.6780000000001
1	5906	1463.976	2.7670000000001
1	5909	1465.453	1.4769999999999
1	5917	1468.074	2.6210000000001
1	5924	1470.576	2.502
1	5927	1471.218	0.64200000000005
1	5937	1473.532	2.3139999999999
1	5938	1473.569	0.037000000000035
1	5942	1474.537	0.96800000000007
1	5948	1475.226	0.68900000000008
1	5960	1476.747	1.521
1	5963	1478.958	2.211
1	5966	1479.251	0.29299999999989
1	5975	1480.796	1.5450000000001
1	5984	1483.611	2.8150000000001
1	5990	1484.297	0.68599999999992
1	5996	1486.328	2.0309999999999
1	6000	1488.107	1.779
1	6001	1488.137	0.029999999999973
1	6008	1489.564	1.4270000000001
1	6018	1491.69	2.126
1	6020	1491.822	0.13200000000006
1	6026	1494.461	2.6389999999999
1	6030	1496.021	1.5599999999999
1	6031	1496.113	0.092000000000098
1	6040	1496.786	0.673
1	6053	1499.647	2.8609999999999
1	6062	1501.394	1.7470000000001
1	6065	1501.716	0.32200000000012
1	6071	1502.579	0.86299999999983
1	6078	1503.949	1.3700000000001
1	6079	1504.012	0.062999999999874
1	6086	1505.247	1.2350000000001
1	6092	1506.715	1.4679999999998
1	6098	1507.446	0.73100000000022
1	6104	1509.212	1.7659999999998
1	6110	1511.472	2.26
1	6113	1512.18	0.70800000000008
1	6124	1514.041	1.8609999999999
1	6129	1515.96	1.9190000000001
1	6137	1518.806	2.846
1	6146	1521.141	2.335
1	6152	1523.686	2.5449999999998
1	6155	1525.157	1.471
1	6158	1525.713	0.55600000000004
1	6166	1528.7	2.9870000000001
1	6170	1529.088	0.38799999999992
1	6179	1530.502	1.414
1	6182	1530.706	0.20400000000018
1	6194	1533.538	2.8319999999999
1	6200	1536.433	2.895
1	6205	1538.591	2.1580000000001
1	6211	1539.641	1.05
1	6215	1540.404	0.76299999999992
1	6220	1541.2	0.79600000000005
1	6224	1541.582	0.38200000000006
1	6230	1543.159	1.577
1	6235	1543.584	0.42499999999995
1	6245	1544.534	0.95000000000005
1	6248	1546.414	1.8799999999999
1	6260	1548.597	2.183
1	6262	1548.67	0.073000000000093
1	6268	1549.96	1.29
1	6278	1551.916	1.9559999999999
1	6284	1554.476	2.5600000000002
1	6287	1555.902	1.4259999999999
1	6296	1558.81	2.9079999999999
1	6300	1559.607	0.79700000000003
1	6301	1559.648	0.041000000000167
1	6314	1561.099	1.4509999999998
1	6317	1561.867	0.76800000000003
1	6326	1564.338	2.471
1	6329	1565.036	0.69800000000009
1	6332	1565.968	0.93200000000002
1	6344	1568.342	2.374
1	6347	1570.487	2.145
1	6356	1572.161	1.674
1	6362	1574.276	2.115
1	6370	1575.532	1.2559999999999
1	6371	1575.548	0.016000000000076
1	6372	1575.582	0.034000000000106
1	6380	1577.116	1.5339999999999
1	6384	1577.366	0.25
1	6386	1577.519	0.15300000000002
1	6398	1580.416	2.8969999999999
1	6404	1582.993	2.577
1	6409	1583.449	0.45600000000013
1	6410	1583.451	0.0019999999999527
1	6421	1586.276	2.825
1	6425	1587.111	0.83500000000004
1	6431	1587.669	0.55799999999999
1	6440	1589.744	2.075
1	6444	1590.071	0.327
1	6452	1590.865	0.79399999999987
1	6461	1593.79	2.925
1	6466	1595.708	1.9180000000001
1	6470	1597.27	1.5619999999999
1	6476	1598.464	1.194
1	6485	1600.788	2.3240000000001
1	6488	1601.211	0.423
1	6500	1604.113	2.902
1	6506	1606.696	2.5830000000001
1	6510	1608.549	1.8529999999998
1	6512	1608.678	0.12900000000013
1	6518	1610.781	2.1029999999998
1	6527	1613.521	2.74
1	6533	1615.095	1.5740000000001
1	6538	1616.158	1.0630000000001
1	6542	1616.519	0.36099999999988
1	6551	1618.784	2.2650000000001
1	6557	1621.439	2.655
1	6561	1621.74	0.30099999999993
1	6573	1624.017	2.277
1	6574	1624.068	0.050999999999931
1	6584	1626.969	2.9010000000001
1	6587	1628.814	1.845
1	6593	1630.471	1.6569999999999
1	6599	1631.359	0.88799999999992
1	6608	1634.147	2.788
1	6611	1634.945	0.798
1	6617	1637.429	2.4840000000002
1	6626	1640.384	2.9549999999999
1	6629	1642.734	2.3499999999999
1	6636	1644.291	1.557
1	6638	1644.489	0.19800000000009
1	6644	1645.906	1.4169999999999
1	6647	1647.221	1.3150000000001
1	6650	1647.829	0.60799999999995
1	6659	1649.1	1.2710000000002
1	6663	1650.173	1.0729999999999
1	6668	1650.664	0.49099999999999
1	6677	1651.988	1.3240000000001
1	6684	1652.776	0.78800000000001
1	6690	1654.342	1.566
1	6692	1654.447	0.10500000000002
1	6701	1657.166	2.7189999999998
1	6712	1659.615	2.4490000000001
1	6719	1661.273	1.6580000000001
1	6728	1663.828	2.5549999999998
1	6731	1666.715	2.8870000000002
1	6736	1667.047	0.33199999999988
1	6744	1668.939	1.8920000000001
1	6752	1671.933	2.9939999999999
1	6758	1674.897	2.9639999999999
1	6764	1676.707	1.8100000000002
1	6767	1677.091	0.38400000000001
1	6774	1678.841	1.75
1	6775	1678.847	0.0059999999998581
1	6781	1679.444	0.59699999999998
1	6791	1682.312	2.8680000000002
1	6794	1683.303	0.99099999999999
1	6806	1685.218	1.915
1	6809	1686.061	0.84299999999985
1	6815	1688.904	2.8430000000001
1	6824	1691.09	2.1860000000001
1	6829	1692.079	0.98899999999981
1	6836	1694.454	2.375
1	6839	1694.778	0.32400000000007
1	6844	1695.955	1.1769999999999
1	6851	1696.619	0.66400000000021
1	6854	1698.67	2.0509999999999
1	6858	1698.977	0.30700000000002
1	6863	1700.168	1.191
1	6869	1700.998	0.82999999999993
1	6883	1702.517	1.519
1	6889	1703.567	1.05
1	6897	1705.686	2.1190000000001
1	6898	1705.76	0.073999999999842
1	6902	1707.662	1.902
1	6908	1708.354	0.69200000000001
1	6914	1709.16	0.80600000000004
1	6923	1711.561	2.4010000000001
1	6932	1714.428	2.867
1	6935	1715.378	0.94999999999982
1	6941	1717.858	2.48
1	6944	1718.17	0.31200000000013
1	6950	1720.072	1.902
1	6956	1722.325	2.2529999999999
1	6963	1722.793	0.46800000000007
1	6968	1724.071	1.278
1	6977	1726.749	2.6779999999999
1	6981	1727.06	0.31099999999992
1	6982	1727.114	0.054000000000087
1	6995	1728.886	1.7719999999999
1	7004	1730.193	1.307
1	7007	1732.589	2.396
1	7015	1735.359	2.77
1	7019	1736.256	0.89700000000016
1	7027	1737.421	1.165
1	7031	1738.88	1.4590000000001
1	7040	1740.644	1.7639999999999
1	7046	1743.596	2.952
1	7049	1745.688	2.0920000000001
1	7055	1746.857	1.1689999999999
1	7058	1747.648	0.79100000000017
1	7064	1750.482	2.8339999999998
1	7068	1750.889	0.40700000000015
1	7076	1753.05	2.1609999999998
1	7082	1755.826	2.7760000000001
1	7091	1757.82	1.9939999999999
1	7096	1759.089	1.269
1	7100	1759.686	0.59700000000021
1	7103	1760.788	1.1019999999999
1	7109	1762.909	2.1210000000001
1	7115	1764.858	1.9489999999998
1	7124	1767.642	2.7840000000001
1	7130	1770.243	2.6009999999999
1	7136	1772.691	2.4480000000001
1	7145	1775.425	2.7339999999999
1	7150	1776.254	0.82900000000018
1	7154	1777.363	1.1089999999999
1	7160	1778.503	1.1399999999999
1	7168	1780.184	1.681
1	7172	1782.189	2.0050000000001
1	7179	1783.049	0.8599999999999
1	7180	1783.107	0.057999999999993
1	7184	1784.305	1.1980000000001
1	7193	1785.231	0.92599999999993
1	7202	1788.058	2.827
1	7210	1790.723	2.665
1	7220	1793.304	2.5810000000001
1	7224	1795.263	1.9590000000001
1	7229	1796.296	1.0329999999999
1	7238	1797.943	1.6469999999999
1	7244	1800.389	2.4460000000001
1	7247	1800.685	0.29599999999982
1	7254	1803.088	2.403
1	7256	1803.212	0.12400000000002
1	7265	1805.661	2.4490000000001
1	7275	1808.084	2.423
1	7277	1808.237	0.15300000000002
1	7283	1810.118	1.8809999999999
1	7292	1811.625	1.5070000000001
1	7295	1812.134	0.50900000000001
1	7300	1812.579	0.44499999999994
1	7307	1814.899	2.3200000000002
1	7310	1816.602	1.703
1	7321	1819.551	2.9489999999998
1	7325	1822.498	2.9470000000001
1	7334	1825.476	2.9780000000001
1	7339	1825.832	0.35599999999999
1	7346	1828.647	2.8149999999998
1	7349	1829.381	0.73400000000015
1	7355	1830.756	1.375
1	7364	1833.028	2.2719999999999
1	7367	1833.639	0.6110000000001
1	7376	1835.338	1.6989999999998
1	7379	1835.895	0.55700000000002
1	7384	1836.209	0.31400000000008
1	7388	1836.559	0.34999999999991
1	7394	1837.632	1.0730000000001
1	7395	1837.646	0.013999999999896
1	7406	1838.921	1.2750000000001
1	7412	1840.914	1.9929999999999
1	7418	1842.119	1.2050000000002
1	7422	1842.376	0.25699999999983
1	7425	1842.564	0.1880000000001
1	7431	1843.398	0.83400000000006
1	7436	1843.906	0.50799999999981
1	7451	1846.801	2.895
1	7454	1847.255	0.45400000000018
1	7460	1849.671	2.4159999999999
1	7469	1851.429	1.758
1	7478	1853.137	1.7079999999999
1	7484	1854.673	1.5360000000001
1	7487	1857.588	2.915
1	7495	1858.68	1.0920000000001
1	7502	1861.044	2.364
1	7508	1862.71	1.6659999999999
1	7511	1863.897	1.1869999999999
1	7520	1866.763	2.8660000000002
1	7523	1868.558	1.7949999999998
1	7526	1868.915	0.35699999999997
1	7535	1870.168	1.2530000000002
1	7541	1872.513	2.345
1	7546	1874.594	2.0809999999999
1	7552	1877.343	2.749
1	7556	1878.121	0.77800000000002
1	7568	1880.396	2.2749999999999
1	7574	1881.776	1.3800000000001
1	7577	1883.497	1.721
1	7584	1886.362	2.865
1	7589	1889.3	2.9379999999999
1	7598	1891.885	2.585
1	7601	1892.962	1.077
1	7607	1895.625	2.663
1	7616	1897.541	1.9159999999999
1	7622	1898.831	1.2900000000002
1	7625	1898.938	0.10699999999997
1	7628	1901.248	2.3099999999999
1	7634	1902.754	1.5060000000001
1	7643	1905.113	2.3589999999999
1	7652	1907.357	2.2439999999999
1	7658	1909.738	2.3810000000001
1	7661	1910.64	0.90200000000004
1	7670	1913.042	2.402
1	7675	1914.689	1.6469999999999
1	7679	1916.109	1.4200000000001
1	7689	1918.134	2.0249999999999
1	7690	1918.198	0.064000000000078
1	7694	1918.505	0.30700000000002
1	7700	1919.382	0.87699999999995
1	7709	1922.331	2.9490000000001
1	7712	1922.75	0.41899999999987
1	7724	1923.742	0.99199999999996
1	7727	1923.895	0.15300000000002
1	7730	1924.889	0.99400000000014
1	7736	1925.85	0.96100000000001
1	7748	1928.69	2.8399999999999
1	7754	1931.225	2.5350000000001
1	7759	1932.373	1.1479999999999
1	7761	1932.447	0.074000000000069
1	7769	1934.94	2.4929999999999
1	7775	1936.922	1.982
1	7783	1937.379	0.45700000000011
1	7788	1940.367	2.9879999999998
1	7793	1940.668	0.30100000000016
1	7799	1943.269	2.6009999999999
1	7803	1944.152	0.88300000000004
1	7808	1945.458	1.306
1	7815	1947.844	2.386
1	7823	1949.877	2.0329999999999
1	7829	1952.691	2.8140000000001
1	7838	1954.554	1.8630000000001
1	7841	1954.847	0.29299999999989
1	7850	1957.5	2.653
1	7855	1959.807	2.307
1	7860	1961.943	2.136
1	7864	1962.104	0.16100000000006
1	7871	1963.293	1.1890000000001
1	7874	1963.795	0.50199999999995
1	7883	1966.261	2.4659999999999
1	7892	1968.363	2.1020000000001
1	7898	1971.012	2.6489999999999
1	7904	1973.912	2.9000000000001
1	7907	1976.236	2.3240000000001
1	7916	1979.219	2.9829999999999
1	7922	1981.063	1.8440000000001
1	7925	1981.174	0.11099999999988
1	7926	1981.217	0.04300000000012
1	7931	1982.243	1.0259999999998
1	7943	1984.713	2.47
1	7949	1987.311	2.5980000000002
1	7959	1990.193	2.8819999999998
1	7962	1990.388	0.19500000000016
1	7964	1990.522	0.13399999999979
1	7973	1993.262	2.74
1	7978	1994.177	0.91500000000019
1	7988	1995.851	1.674
1	7994	1998.798	2.9469999999999
1	8000	1999.999	1.201
1	8006	2001.997	1.998
1	8009	2003.2	1.203
1	8018	2005.505	2.3050000000001
1	8024	2007.088	1.5829999999999
1	8027	2007.801	0.71299999999997
1	8030	2008.615	0.81400000000008
1	8036	2009.389	0.77400000000011
1	8042	2010.986	1.597
1	8052	2013.096	2.1099999999999
1	8060	2015.944	2.848
1	8066	2018.026	2.0820000000001
1	8072	2020.37	2.3440000000001
1	8075	2020.877	0.50699999999983
1	8078	2021.999	1.1220000000001
1	8084	2023.24	1.241
1	8093	2025.299	2.059
1	8101	2026.187	0.88800000000015
1	8108	2027.097	0.90999999999985
1	8111	2028.165	1.068
1	8117	2030.596	2.431
1	8123	2032.329	1.7329999999999
1	8126	2032.555	0.22600000000011
1	8129	2032.79	0.2349999999999
1	8137	2033.904	1.114
1	8147	2036.204	2.3
1	8156	2038.27	2.066
1	8162	2040.394	2.124
1	8165	2042.696	2.3020000000001
1	8174	2043.557	0.86099999999988
1	8177	2045.202	1.645
1	8182	2046.832	1.6300000000001
1	8189	2049.051	2.2189999999998
1	8195	2051.922	2.8710000000001
1	8198	2052.756	0.83399999999983
1	8204	2055.136	2.3800000000001
1	8210	2057.116	1.98
1	8216	2058.857	1.741
1	8222	2061.182	2.3250000000003
1	8229	2064.014	2.8319999999999
1	8231	2064.124	0.11000000000013
1	8236	2064.566	0.44200000000001
1	8246	2066.835	2.2689999999998
1	8249	2067.086	0.2510000000002
1	8252	2068.634	1.5479999999998
1	8261	2069.294	0.65999999999985
1	8264	2070.117	0.82300000000032
1	8274	2072.223	2.1059999999998
1	8275	2072.314	0.090999999999894
1	8288	2074.934	2.6200000000003
1	8291	2076.267	1.3329999999996
1	8302	2077.774	1.5070000000001
1	8308	2079.394	1.6200000000003
1	8318	2081.331	1.9369999999999
1	8321	2082.366	1.0349999999999
1	8324	2082.669	0.30299999999988
1	8328	2083.624	0.95500000000038
1	8333	2084.128	0.50399999999991
1	8339	2085.796	1.6679999999997
1	8345	2086.75	0.95400000000018
1	8354	2089.624	2.8740000000003
1	8363	2092.521	2.8969999999999
1	8369	2094.381	1.8599999999997
1	8375	2096.233	1.8520000000003
1	8381	2099.189	2.9559999999997
1	8390	2101.851	2.6620000000003
1	8396	2104.146	2.2950000000001
1	8399	2105.087	0.9409999999998
1	8402	2106.184	1.0970000000002
1	8411	2106.788	0.60399999999981
1	8417	2108.249	1.4610000000002
1	8426	2111.22	2.971
1	8431	2113.956	2.7359999999999
1	8436	2114.311	0.35500000000002
1	8437	2114.387	0.076000000000022
1	8446	2117.083	2.6959999999999
1	8456	2118.695	1.6120000000001
1	8460	2119.296	0.60099999999966
1	8468	2121.317	2.0210000000002
1	8471	2123.25	1.933
1	8474	2123.616	0.36599999999999
1	8481	2124.395	0.779
1	8485	2124.575	0.17999999999984
1	8491	2125.205	0.63000000000011
1	8495	2125.602	0.39699999999993
1	8498	2126.182	0.58000000000038
1	8508	2128.238	2.0559999999996
1	8510	2128.386	0.14800000000014
1	8515	2128.692	0.30600000000004
1	8522	2129.095	0.40300000000025
1	8531	2130.045	0.94999999999982
1	8534	2130.941	0.89600000000019
1	8543	2131.706	0.76499999999987
1	8546	2133.958	2.252
1	8554	2136.952	2.9940000000001
1	8560	2138.554	1.6019999999999
1	8570	2141.387	2.8330000000001
1	8575	2142.577	1.1900000000001
1	8579	2142.897	0.31999999999971
1	8585	2144.123	1.2260000000001
1	8591	2145.011	0.88799999999992
1	8594	2146.491	1.48
1	8601	2148.462	1.971
1	8606	2149.845	1.3830000000003
1	8618	2152.65	2.8049999999998
1	8623	2155.304	2.654
1	8633	2157.41	2.1059999999998
1	8639	2158.879	1.4690000000001
1	8642	2159.274	0.39499999999998
1	8648	2160.465	1.1910000000003
1	8657	2162.578	2.1129999999998
1	8660	2163.433	0.85500000000002
1	8664	2163.745	0.3119999999999
1	8678	2166.469	2.7240000000002
1	8684	2168.596	2.127
1	8690	2170.442	1.846
1	8694	2172.819	2.377
1	8702	2175.326	2.5070000000001
1	8705	2176.776	1.4499999999998
1	8714	2179.42	2.6440000000002
1	8720	2182.169	2.7489999999998
1	8726	2182.984	0.81500000000005
1	8731	2184.807	1.8230000000003
1	8738	2186.387	1.5799999999999
1	8741	2188.001	1.614
1	8747	2190.814	2.8129999999996
1	8751	2191.73	0.91600000000017
1	8762	2194.68	2.9499999999998
1	8768	2197.386	2.7060000000001
1	8774	2198.762	1.3760000000002
1	8780	2201.214	2.4519999999998
1	8783	2203.521	2.3070000000002
1	8789	2205.555	2.0339999999997
1	8794	2206.515	0.96000000000004
1	8801	2207.104	0.5890000000004
1	8807	2209.119	2.0149999999999
1	8813	2211.648	2.529
1	8814	2211.697	0.048999999999978
1	8819	2213.625	1.9279999999999
1	8827	2214.954	1.3290000000002
1	8834	2217.648	2.694
1	8843	2218.612	0.96399999999994
1	8852	2220.035	1.4229999999998
1	8857	2221.579	1.5440000000003
1	8861	2222	0.42099999999982
1	8870	2224.139	2.1390000000001
1	8877	2226.63	2.491
1	8879	2226.804	0.17399999999998
1	8886	2227.678	0.8739999999998
1	8888	2227.792	0.11400000000003
1	8900	2230.662	2.8700000000003
1	8903	2232.664	2.002
1	8912	2235.557	2.893
1	8918	2237.151	1.5939999999996
1	8924	2239.557	2.4060000000004
1	8927	2240.68	1.1229999999996
1	8933	2241.741	1.0610000000001
1	8938	2242.876	1.1350000000002
1	8945	2244.85	1.9739999999997
1	8950	2245.928	1.078
1	8954	2248.629	2.701
1	8966	2251.579	2.9500000000003
1	8967	2251.67	0.090999999999894
1	8972	2252.251	0.58100000000013
1	8976	2252.588	0.33699999999999
1	8978	2252.715	0.12699999999995
1	8985	2253.398	0.68299999999999
1	8996	2254.738	1.3399999999997
1	9002	2257.249	2.5110000000004
1	9005	2257.914	0.66499999999996
1	9017	2259.396	1.482
1	9026	2262.185	2.7889999999998
1	9029	2264.187	2.002
1	9038	2266.581	2.3940000000002
1	9044	2268.234	1.6529999999998
1	9050	2271.175	2.9410000000003
1	9054	2272.941	1.7660000000001
1	9056	2273.078	0.13699999999972
1	9059	2273.672	0.59400000000005
1	9068	2274.886	1.2139999999999
1	9072	2276.69	1.8040000000001
1	9080	2279.006	2.3159999999998
1	9086	2280.245	1.239
1	9095	2282.375	2.1300000000001
1	9104	2284.745	2.3699999999999
1	9107	2285.697	0.95200000000023
1	9116	2288.635	2.9380000000001
1	9119	2290.584	1.9489999999996
1	9125	2293.227	2.643
1	9131	2294.895	1.6680000000001
1	9140	2297.12	2.2249999999999
1	9146	2299.432	2.3120000000004
1	9152	2302.157	2.7249999999999
1	9155	2302.608	0.45100000000002
1	9161	2304.283	1.6749999999997
1	9165	2305.568	1.2850000000003
1	9173	2308.337	2.7689999999998
1	9176	2308.652	0.31500000000005
1	9185	2311.6	2.9479999999999
1	9194	2314.226	2.6260000000002
1	9197	2314.447	0.221
1	9200	2315.92	1.473
1	9206	2318.073	2.1529999999998
1	9212	2320.287	2.2140000000004
1	9218	2323.006	2.7189999999996
1	9227	2325.406	2.4000000000001
1	9230	2326.339	0.93299999999999
1	9236	2327.834	1.4949999999999
1	9248	2329.939	2.105
1	9251	2330.354	0.41500000000042
1	9254	2330.936	0.58199999999988
1	9263	2332.379	1.4429999999998
1	9269	2333.274	0.89499999999998
1	9278	2335.862	2.5880000000002
1	9283	2337.621	1.759
1	9287	2338.667	1.0459999999998
1	9296	2341.213	2.5460000000003
1	9302	2343.628	2.415
1	9308	2346.623	2.9949999999999
1	9314	2349.165	2.5419999999999
1	9319	2350.408	1.2429999999999
1	9323	2350.79	0.38200000000006
1	9332	2353.312	2.5219999999999
1	9335	2353.491	0.17900000000009
1	9341	2354.542	1.0509999999999
1	9347	2357.301	2.759
1	9353	2360.183	2.8820000000001
1	9362	2362.105	1.922
1	9369	2364.171	2.0660000000003
1	9371	2364.298	0.12699999999995
1	9377	2365.841	1.5429999999997
1	9386	2367.482	1.6410000000001
1	9389	2368.502	1.02
1	9392	2368.708	0.20600000000013
1	9398	2369.395	0.6869999999999
1	9402	2370.469	1.0740000000001
1	9408	2371.774	1.3049999999998
1	9418	2373.547	1.7730000000001
1	9424	2375.714	2.1669999999999
1	9428	2376.667	0.95299999999997
1	9433	2377.654	0.98700000000008
1	9434	2377.713	0.059000000000196
1	9438	2377.836	0.12300000000005
1	9446	2378.609	0.77299999999968
1	9458	2380.83	2.221
1	9467	2382.715	1.8850000000002
1	9473	2385.024	2.3089999999997
1	9479	2387.331	2.3070000000002
1	9488	2389.901	2.5699999999997
1	9491	2392.062	2.1610000000001
1	9500	2394.999	2.9370000000004
1	9506	2397.695	2.6959999999999
1	9512	2399.455	1.7599999999998
1	9516	2401.219	1.7640000000001
1	9518	2401.322	0.10300000000007
1	9530	2404.318	2.9960000000001
1	9533	2404.713	0.39499999999998
1	9541	2406.934	2.221
1	9548	2409.397	2.4629999999997
1	9551	2410.516	1.1190000000001
1	9555	2411.107	0.59099999999989
1	9560	2411.403	0.29600000000028
1	9572	2413.649	2.2459999999996
1	9575	2415.007	1.3580000000002
1	9584	2417.148	2.1410000000001
1	9590	2419.894	2.7460000000001
1	9595	2420.334	0.4399999999996
1	9601	2423.092	2.7580000000003
1	9608	2424.327	1.2350000000001
1	9611	2425.243	0.91599999999971
1	9620	2428.072	2.8290000000002
1	9626	2431.044	2.9719999999998
1	9629	2431.641	0.59700000000021
1	9635	2433.612	1.971
1	9638	2433.931	0.31899999999996
1	9645	2435.884	1.953
1	9656	2438.366	2.482
1	9659	2440.419	2.0529999999999
1	9665	2441.671	1.2520000000004
1	9668	2442.82	1.1489999999999
1	9677	2443.999	1.1790000000001
1	9686	2445.768	1.7689999999998
1	9692	2448.413	2.645
1	9699	2451.2	2.7870000000003
1	9701	2451.361	0.1609999999996
1	9707	2451.906	0.54500000000007
1	9712	2452.243	0.33699999999999
1	9716	2452.823	0.57999999999993
1	9723	2453.863	1.04
1	9731	2455.383	1.5200000000004
1	9737	2457.271	1.8879999999999
1	9743	2459.467	2.1959999999999
1	9749	2462.137	2.6700000000001
1	9758	2465.104	2.9670000000001
1	9761	2467.093	1.9889999999996
1	9767	2469.629	2.5360000000001
1	9776	2471.963	2.3340000000003
1	9782	2472.886	0.92299999999977
1	9790	2475.513	2.627
1	9792	2475.641	0.12800000000016
1	9793	2475.642	0.00099999999974898
1	9798	2476.463	0.82100000000037
1	9809	2477.849	1.386
1	9812	2479.764	1.915
1	9815	2480.069	0.30499999999984
1	9825	2482.088	2.0190000000002
1	9833	2484.493	2.4049999999997
1	9838	2485.049	0.55600000000004
1	9842	2486.294	1.2449999999999
1	9851	2487.854	1.5600000000004
1	9854	2489.209	1.3549999999996
1	9863	2491.608	2.3990000000003
1	9872	2494.49	2.8820000000001
1	9878	2496.887	2.3969999999999
1	9881	2497.121	0.23399999999992
1	9887	2499.536	2.415
1	9890	2499.736	0.19999999999982
1	9896	2500.444	0.70800000000008
1	9899	2500.903	0.45900000000029
1	9902	2501.496	0.59299999999985
1	9911	2503.081	1.585
1	9917	2505.096	2.0149999999999
1	9923	2506.507	1.4110000000001
1	9930	2509.386	2.8789999999999
1	9935	2510.107	0.721
1	9944	2512.396	2.2890000000002
1	9953	2515.007	2.6109999999999
1	9959	2516.693	1.6860000000001
1	9962	2518.062	1.3689999999997
1	9971	2519.851	1.7890000000002
1	9974	2521.137	1.2860000000001
1	9980	2522.803	1.6659999999997
1	9989	2524.054	1.2510000000002
1	9992	2525.255	1.201
1	10001	2527.341	2.0859999999998
1	10004	2527.62	0.279
1	10008	2528.12	0.5
1	10016	2530.674	2.5540000000001
1	10022	2532.987	2.3130000000001
1	10028	2533.831	0.84400000000005
1	10031	2534.963	1.1320000000001
1	10037	2537.741	2.7779999999998
1	10046	2540.195	2.4540000000002
1	10049	2542.038	1.8429999999998
1	10056	2542.702	0.66400000000021
1	10058	2542.835	0.13299999999981
1	10064	2544.129	1.2939999999999
1	10073	2546.147	2.018
1	10082	2548.632	2.4850000000001
1	10094	2551.19	2.558
1	10095	2551.288	0.097999999999956
1	10105	2552.02	0.73199999999997
1	10112	2553.037	1.0170000000003
1	10115	2553.603	0.5659999999998
1	10124	2556.012	2.4090000000001
1	10130	2558.314	2.3019999999997
1	10133	2559.864	1.5500000000002
1	10142	2562.813	2.9490000000001
1	10145	2563.245	0.43199999999979
1	10154	2565.944	2.6990000000001
1	10157	2566.293	0.34900000000016
1	10163	2566.783	0.48999999999978
1	10172	2568.872	2.0889999999999
1	10175	2569.201	0.32900000000018
1	10181	2570.899	1.6979999999999
1	10190	2572.16	1.261
1	10196	2574.345	2.1850000000004
1	10202	2577.047	2.7019999999998
1	10208	2579.357	2.3099999999999
1	10215	2581.906	2.549
1	10216	2582.005	0.09900000000016
1	10220	2582.936	0.93100000000004
1	10229	2584.482	1.5459999999998
1	10235	2585.73	1.248
1	10241	2586.424	0.69399999999996
1	10244	2587.348	0.92399999999998
1	10253	2590.184	2.8360000000002
1	10258	2591.067	0.88299999999981
1	10263	2592.129	1.0619999999999
1	10264	2592.14	0.010999999999967
1	10274	2594.675	2.5350000000003
1	10277	2595.14	0.46499999999969
1	10280	2595.752	0.61200000000008
1	10291	2596.518	0.76600000000008
1	10301	2599.172	2.654
1	10304	2599.791	0.61900000000014
1	10312	2602.184	2.393
1	10322	2604.608	2.424
1	10328	2607.389	2.7809999999999
1	10331	2607.736	0.34699999999975
1	10334	2608.388	0.65200000000004
1	10340	2610.617	2.2290000000003
1	10349	2611.205	0.58799999999974
1	10352	2612.064	0.85899999999992
1	10355	2612.564	0.5
1	10358	2613.082	0.51800000000003
1	10370	2614.527	1.4450000000002
1	10373	2614.856	0.32900000000018
1	10379	2615.821	0.96499999999969
1	10386	2617.101	1.2800000000002
1	10388	2617.175	0.074000000000069
1	10394	2618.34	1.165
1	10398	2618.622	0.2819999999997
1	10409	2620.103	1.4810000000002
1	10421	2622.58	2.4769999999999
1	10430	2625.035	2.4549999999999
1	10433	2625.276	0.24099999999999
1	10441	2627.08	1.8040000000001
1	10445	2629.584	2.5039999999999
1	10450	2630.298	0.7140000000004
1	10460	2632.584	2.2859999999996
1	10466	2635.256	2.672
1	10472	2637.674	2.4180000000001
1	10476	2637.996	0.32200000000012
1	10477	2638.023	0.027000000000044
1	10483	2638.598	0.57499999999982
1	10487	2639.409	0.81100000000015
1	10496	2641.258	1.8490000000002
1	10505	2642.411	1.1529999999998
1	10514	2644.521	2.1100000000001
1	10517	2645.58	1.0589999999997
1	10520	2646.043	0.46300000000019
1	10529	2646.981	0.9380000000001
1	10536	2649.634	2.6529999999998
1	10544	2652.51	2.8760000000002
1	10547	2653.133	0.62300000000005
1	10554	2655.498	2.3649999999998
1	10559	2656.318	0.82000000000016
1	10565	2658.979	2.6610000000001
1	10570	2659.476	0.49699999999984
1	10580	2661.474	1.998
1	10584	2661.727	0.2529999999997
1	10592	2664.649	2.922
1	10597	2666.751	2.1020000000003
1	10604	2669.276	2.5249999999996
1	10607	2670.976	1.7000000000003
1	10613	2672.406	1.4299999999998
1	10620	2674.272	1.866
1	10625	2675.858	1.5860000000002
1	10631	2677.266	1.4079999999999
1	10640	2679.544	2.2779999999998
1	10643	2680.079	0.53500000000031
1	10646	2680.593	0.51399999999967
1	10654	2681.889	1.2960000000003
1	10661	2682.851	0.96199999999999
1	10664	2683.073	0.22199999999975
1	10676	2685.606	2.5330000000004
1	10682	2687.921	2.3150000000001
1	10685	2689.553	1.6319999999996
1	10692	2692.491	2.9380000000001
1	10696	2692.709	0.21799999999985
1	10703	2695.009	2.3000000000002
1	10709	2695.808	0.79899999999998
1	10712	2696.914	1.1060000000002
1	10715	2697.572	0.6579999999999
1	10721	2699.939	2.3669999999997
1	10724	2700.372	0.43299999999999
1	10735	2702.892	2.5200000000004
1	10743	2704.877	1.9849999999997
1	10745	2705.054	0.17700000000013
1	10751	2707.487	2.433
1	10754	2709.37	1.8829999999998
1	10766	2712.085	2.7150000000001
1	10772	2714.331	2.2460000000001
1	10775	2716.014	1.683
1	10781	2718.524	2.5099999999998
1	10787	2719.358	0.83400000000029
1	10793	2720.999	1.6410000000001
1	10797	2721.88	0.88099999999986
1	10807	2724.785	2.9049999999997
1	10812	2725.464	0.67900000000009
1	10813	2725.511	0.047000000000025
1	10819	2726.489	0.97800000000007
1	10827	2727.997	1.5079999999998
1	10828	2728.082	0.085000000000036
1	10835	2729.76	1.6780000000003
1	10841	2732.383	2.623
1	10850	2734.497	2.1139999999996
1	10856	2736.366	1.8690000000001
1	10865	2739.234	2.8679999999999
1	10871	2742.109	2.875
1	10880	2744.582	2.473
1	10886	2746.405	1.8230000000003
1	10890	2747.868	1.4629999999997
1	10891	2747.908	0.039999999999964
1	10898	2749.727	1.819
1	10907	2752.694	2.9670000000001
1	10913	2755.148	2.4540000000002
1	10918	2756.17	1.0219999999999
1	10924	2756.626	0.45600000000013
1	10934	2758.978	2.3519999999999
1	10944	2761.21	2.232
1	10951	2764.111	2.9009999999998
1	10958	2766.736	2.625
1	10964	2768.403	1.6670000000004
1	10967	2768.707	0.30399999999963
1	10976	2770.158	1.451
1	10979	2771.099	0.94100000000026
1	10985	2772.636	1.5369999999998
1	10988	2773.541	0.9050000000002
1	11000	2776.126	2.585
1	11003	2778.659	2.5329999999999
1	11009	2779.605	0.94599999999991
1	11012	2781.404	1.799
1	11018	2782.695	1.2910000000002
1	11029	2785.422	2.7269999999999
1	11033	2785.984	0.5619999999999
1	11042	2788.077	2.0930000000003
1	11048	2790.988	2.9110000000001
1	11051	2791.514	0.52599999999984
1	11054	2792.12	0.60599999999977
1	11063	2794.201	2.0810000000001
1	11072	2796.538	2.337
1	11077	2798.01	1.4720000000002
1	11083	2799.839	1.8289999999997
1	11087	2800.477	0.63799999999992
1	11095	2801.907	1.4300000000003
1	11099	2802.243	0.33599999999979
1	11102	2803.207	0.96399999999994
1	11106	2804.061	0.85400000000027
1	11114	2805.395	1.3339999999998
1	11120	2808.185	2.79
1	11126	2808.729	0.54400000000032
1	11132	2809.933	1.2039999999997
1	11138	2811.78	1.8470000000002
1	11144	2814.62	2.8399999999997
1	11147	2815.019	0.39900000000034
1	11159	2817.773	2.7539999999999
1	11162	2818.016	0.24299999999994
1	11171	2819.458	1.442
1	11176	2820.822	1.364
1	11185	2821.451	0.62899999999991
1	11192	2822.493	1.0419999999999
1	11198	2823.855	1.3620000000001
1	11204	2826.451	2.596
1	11210	2829.316	2.8650000000002
1	11213	2830.873	1.5569999999998
1	11219	2833.483	2.6100000000001
1	11225	2835.308	1.8249999999998
1	11231	2836.355	1.047
1	11234	2836.938	0.58300000000008
1	11240	2838.177	1.239
1	11250	2839.745	1.5679999999998
1	11252	2839.878	0.13300000000027
1	11255	2840.316	0.4380000000001
1	11264	2842.117	1.8009999999999
1	11270	2842.792	0.67499999999973
1	11276	2845.304	2.5120000000002
1	11282	2846.285	0.98099999999977
1	11285	2846.6	0.31500000000005
1	11288	2846.851	0.2510000000002
1	11297	2849.662	2.8110000000001
1	11300	2850.016	0.35399999999981
1	11303	2850.439	0.42299999999977
1	11312	2853.027	2.5880000000002
1	11318	2853.79	0.76299999999992
1	11327	2855.788	1.998
1	11336	2858.238	2.4500000000003
1	11345	2860.06	1.8219999999997
1	11354	2862.932	2.8720000000003
1	11360	2865.059	2.127
1	11363	2865.397	0.33799999999974
1	11369	2867.072	1.6750000000002
1	11378	2869.227	2.1549999999997
1	11385	2871.633	2.4060000000004
1	11386	2871.712	0.078999999999724
1	11390	2873.869	2.1570000000002
1	11396	2876.346	2.4769999999999
1	11402	2878.587	2.241
1	11408	2880.124	1.5370000000003
1	11417	2881.498	1.3739999999998
1	11423	2883.146	1.6480000000001
1	11432	2885.26	2.114
1	11435	2888.029	2.7689999999998
1	11444	2889.88	1.8510000000001
1	11450	2892.544	2.6639999999998
1	11456	2894.648	2.1040000000003
1	11459	2894.853	0.20499999999993
1	11465	2896.355	1.502
1	11468	2897.214	0.85899999999992
1	11477	2898.07	0.85600000000022
1	11480	2899.138	1.0679999999998
1	11486	2900.082	0.94399999999996
1	11492	2901.818	1.7360000000003
1	11498	2903.869	2.0509999999999
1	11501	2904.675	0.80600000000004
1	11507	2905.064	0.38899999999967
1	11510	2905.24	0.17600000000039
1	11522	2906.967	1.7269999999999
1	11529	2907.525	0.55799999999999
1	11530	2907.553	0.027999999999793
1	11540	2910.336	2.7830000000004
1	11543	2911.947	1.6109999999999
1	11547	2912.224	0.27700000000004
1	11558	2914.753	2.529
1	11564	2917.703	2.9499999999998
1	11571	2919.049	1.346
1	11573	2919.176	0.12699999999995
1	11576	2919.529	0.35300000000007
1	11579	2920.674	1.145
1	11591	2923.331	2.6570000000002
1	11594	2923.775	0.44399999999996
1	11604	2926.247	2.4719999999998
1	11605	2926.292	0.045000000000073
1	11615	2927.664	1.3720000000003
1	11625	2929.597	1.933
1	11627	2929.778	0.18100000000004
1	11636	2931.622	1.8439999999996
1	11642	2934.455	2.8330000000001
1	11645	2934.936	0.48100000000022
1	11654	2937.125	2.1889999999999
1	11663	2938.952	1.8270000000002
1	11668	2939.507	0.55499999999984
1	11670	2939.526	0.018999999999778
1	11671	2939.554	0.028000000000247
1	11689	2941.15	1.596
1	11695	2943.978	2.828
1	11702	2945.911	1.933
1	11708	2948.054	2.143
1	11711	2949.536	1.482
1	11719	2951.282	1.7460000000001
1	11723	2951.661	0.37899999999991
1	11729	2954.291	2.6300000000001
1	11738	2956.573	2.2819999999997
1	11744	2959.568	2.9950000000003
1	11750	2960.461	0.89300000000003
1	11753	2961.142	0.68100000000004
1	11756	2961.517	0.375
1	11765	2964.41	2.8929999999996
1	11774	2966.753	2.3430000000003
1	11777	2967.252	0.4989999999998
1	11783	2968.91	1.6579999999999
1	11789	2970.151	1.241
1	11792	2970.605	0.45400000000018
1	11795	2971.091	0.48599999999988
1	11804	2973.981	2.8900000000003
1	11810	2974.896	0.91499999999996
1	11816	2977.72	2.8240000000001
1	11819	2977.947	0.22699999999986
1	11825	2979.329	1.3820000000001
1	11829	2979.718	0.38899999999967
1	11830	2979.732	0.014000000000124
1	11840	2981.393	1.6610000000001
1	11845	2981.735	0.3420000000001
1	11855	2983.901	2.1659999999997
1	11861	2985.995	2.0940000000001
1	11866	2986.524	0.529
1	11873	2989.349	2.8250000000003
1	11882	2991.512	2.163
1	11885	2992.406	0.89399999999978
1	11894	2994.534	2.1280000000002
1	11900	2996.73	2.1959999999999
1	11903	2997.757	1.027
1	11911	2998.884	1.127
1	11915	2999.961	1.0770000000002
1	11921	3001.811	1.8499999999999
1	11927	3004.512	2.701
1	11930	3005.032	0.51999999999998
1	11941	3007.658	2.6259999999997
1	11943	3007.741	0.083000000000084
1	11954	3009.722	1.9810000000002
1	11958	3010.965	1.2429999999999
1	11969	3013.339	2.3739999999998
1	11974	3015.503	2.1640000000002
1	11981	3016.943	1.4400000000001
1	11990	3018.875	1.9319999999998
1	11996	3020.38	1.5050000000001
1	12002	3022.815	2.4349999999999
1	12005	3024.243	1.4279999999999
1	12014	3025.812	1.569
1	12017	3026.564	0.75199999999995
1	12023	3028.379	1.8150000000001
1	12029	3029.288	0.90900000000011
1	12035	3031.02	1.732
1	12039	3031.529	0.50900000000001
1	12046	3032.007	0.47800000000007
1	12053	3033.258	1.2510000000002
1	12062	3034.538	1.2799999999997
1	12065	3035.342	0.80400000000009
1	12070	3035.737	0.39499999999998
1	12074	3035.855	0.11799999999994
1	12075	3035.931	0.076000000000022
1	12080	3036.746	0.81500000000005
1	12092	3038.132	1.386
1	12101	3040.311	2.1790000000001
1	12105	3041.736	1.4249999999997
1	12117	3044.448	2.712
1	12119	3044.554	0.10600000000022
1	12122	3045.096	0.54199999999992
1	12128	3046.112	1.0160000000001
1	12137	3047.844	1.732
1	12146	3050.402	2.558
1	12150	3051.453	1.0509999999999
1	12156	3052.257	0.80400000000009
1	12158	3052.443	0.18600000000015
1	12170	3054.907	2.4639999999999
1	12173	3056.046	1.1390000000001
1	12179	3057.761	1.7149999999997
1	12189	3060.712	2.951
1	12190	3060.717	0.0050000000001091
1	12194	3061.153	0.43600000000015
1	12200	3063.49	2.337
1	12209	3065.905	2.415
1	12218	3068.213	2.308
1	12221	3069.824	1.6109999999999
1	12229	3072.761	2.9369999999999
1	12236	3073.95	1.1890000000003
1	12243	3075.756	1.8059999999996
1	12245	3075.946	0.19000000000005
1	12248	3077.176	1.23
1	12257	3079.344	2.1680000000001
1	12260	3080.06	0.71599999999989
1	12269	3082.891	2.8310000000001
1	12275	3084.951	2.0599999999999
1	12278	3085.814	0.86299999999983
1	12289	3088.121	2.3070000000002
1	12293	3088.37	0.2489999999998
1	12303	3091.294	2.924
1	12305	3091.442	0.14800000000014
1	12314	3094.242	2.8000000000002
1	12317	3095.001	0.75900000000001
1	12324	3097.274	2.2729999999997
1	12325	3097.274	0
1	12331	3098.037	0.76300000000037
1	12335	3100.284	2.2469999999998
1	12344	3101.881	1.5969999999998
1	12347	3102.226	0.34500000000025
1	12351	3103.407	1.181
1	12359	3104.534	1.127
1	12370	3106.238	1.7040000000002
1	12377	3108.242	2.0039999999999
1	12385	3110.764	2.5219999999999
1	12392	3112.256	1.4919999999997
1	12395	3113.432	1.1760000000004
1	12398	3113.864	0.43199999999979
1	12410	3116.278	2.4140000000002
1	12416	3118.418	2.1399999999999
1	12419	3119.644	1.2260000000001
1	12427	3121.199	1.5549999999998
1	12431	3123.195	1.9960000000001
1	12436	3123.689	0.49399999999969
1	12438	3123.771	0.082000000000335
1	12446	3124.724	0.95299999999997
1	12455	3126.511	1.7869999999998
1	12461	3127.971	1.46
1	12470	3130.049	2.078
1	12476	3132.508	2.4590000000003
1	12479	3133.973	1.4649999999997
1	12484	3134.376	0.40300000000025
1	12494	3136.928	2.5519999999997
1	12497	3138.653	1.7250000000004
1	12503	3140.873	2.2199999999998
1	12512	3142.987	2.114
1	12518	3145.892	2.9050000000002
1	12521	3146.778	0.88599999999997
1	12530	3148.894	2.116
1	12533	3149.991	1.0969999999998
1	12536	3151.177	1.1860000000001
1	12541	3151.869	0.69200000000001
1	12545	3152.901	1.0319999999997
1	12557	3155.746	2.8450000000003
1	12562	3156.624	0.87800000000016
1	12569	3157.362	0.73799999999983
1	12575	3159.111	1.7489999999998
1	12581	3159.885	0.77400000000034
1	12587	3161.305	1.4200000000001
1	12593	3163.808	2.5029999999997
1	12598	3164.499	0.69100000000026
1	12602	3165.779	1.2799999999997
1	12608	3167.61	1.8310000000001
1	12614	3169.247	1.6369999999997
1	12623	3172.171	2.9240000000004
1	12629	3174.212	2.0409999999997
1	12638	3176.432	2.2200000000003
1	12644	3179.333	2.9009999999998
1	12647	3180.576	1.2429999999999
1	12654	3181.642	1.0660000000003
1	12656	3181.774	0.13199999999961
1	12662	3182.327	0.55300000000034
1	12668	3183.039	0.71199999999999
1	12672	3183.59	0.55099999999993
1	12680	3185.854	2.2640000000001
1	12686	3187.462	1.6079999999997
1	12696	3189.465	2.0030000000002
1	12704	3191.926	2.4609999999998
1	12707	3192.618	0.69200000000001
1	12713	3193.596	0.97800000000007
1	12722	3195.721	2.125
1	12726	3196.899	1.1779999999999
1	12727	3196.987	0.088000000000193
1	12735	3198.292	1.3049999999998
1	12746	3201.017	2.7250000000004
1	12751	3202.244	1.2269999999999
1	12758	3203.241	0.99699999999984
1	12761	3206.21	2.9690000000001
1	12767	3208.143	1.933
1	12773	3209.241	1.098
1	12777	3209.547	0.30600000000004
1	12782	3211.911	2.364
1	12790	3214.035	2.1239999999998
1	12797	3216.801	2.7660000000001
1	12801	3217.453	0.65200000000004
1	12806	3217.798	0.34500000000025
1	12813	3219.97	2.172
1	12819	3220.58	0.60999999999967
1	12824	3221.108	0.52800000000025
1	12829	3222.067	0.95899999999983
1	12839	3224.517	2.4500000000003
1	12846	3226.136	1.6189999999997
1	12848	3226.274	0.13799999999992
1	12854	3227.666	1.3920000000003
1	12863	3229.718	2.0519999999997
1	12872	3231.333	1.6150000000002
1	12878	3233.05	1.7170000000001
1	12881	3233.724	0.67399999999998
1	12887	3236.267	2.5430000000001
1	12896	3237.951	1.6839999999997
1	12902	3240.091	2.1399999999999
1	12908	3243.037	2.9460000000004
1	12912	3244.322	1.2849999999999
1	12922	3246.965	2.643
1	12923	3246.987	0.021999999999935
1	12925	3247.087	0.099999999999909
1	12932	3248.858	1.7710000000002
1	12935	3249.792	0.93399999999974
1	12941	3250.537	0.74500000000035
1	12944	3251.371	0.83399999999983
1	12950	3252.326	0.95499999999993
1	12959	3254.513	2.1869999999999
1	12967	3256.221	1.7080000000001
1	12972	3258.588	2.3670000000002
1	12983	3261.079	2.491
1	12989	3263.608	2.529
1	12995	3264.852	1.2439999999997
1	12998	3266.116	1.2640000000001
1	13007	3268.895	2.779
1	13016	3270.88	1.9850000000001
1	13019	3271.121	0.24099999999999
1	13025	3272.748	1.627
1	13028	3273.816	1.0680000000002
1	13041	3276.778	2.962
1	13042	3276.819	0.040999999999713
1	13048	3278.656	1.837
1	13052	3280.827	2.1710000000003
1	13058	3281.694	0.86699999999973
1	13064	3284.615	2.9210000000003
1	13073	3287.194	2.5789999999997
1	13083	3289.941	2.7470000000003
1	13084	3289.999	0.057999999999993
1	13091	3291.709	1.71
1	13094	3292.593	0.88399999999956
1	13106	3295.14	2.547
1	13112	3297.039	1.8990000000003
1	13118	3298.656	1.6169999999997
1	13121	3299	0.34400000000005
1	13130	3300.621	1.6210000000001
1	13133	3302.517	1.8960000000002
1	13142	3305.385	2.8679999999999
1	13145	3307.14	1.7549999999997
1	13154	3310.042	2.902
1	13160	3312.927	2.8850000000002
1	13163	3314.878	1.951
1	13172	3316.396	1.518
1	13175	3317.794	1.3979999999997
1	13185	3320.465	2.6710000000003
1	13186	3320.55	0.085000000000036
1	13190	3320.891	0.34099999999989
1	13193	3321.197	0.30600000000004
1	13199	3323.468	2.2709999999997
1	13205	3324.487	1.0190000000002
1	13208	3326.401	1.9140000000002
1	13214	3328.212	1.8109999999997
1	13220	3329.369	1.1570000000002
1	13226	3330.964	1.5949999999998
1	13235	3332.899	1.9349999999999
1	13241	3335.722	2.8230000000003
1	13250	3337.449	1.7269999999999
1	13259	3339.292	1.8429999999998
1	13262	3339.496	0.20400000000018
1	13271	3342.353	2.857
1	13277	3343.937	1.5839999999998
1	13287	3346.341	2.404
1	13289	3346.492	0.15100000000029
1	13292	3347.755	1.2629999999999
1	13298	3348.526	0.77100000000019
1	13307	3349.327	0.80099999999993
1	13316	3351.701	2.3739999999998
1	13321	3353.573	1.8719999999998
1	13326	3354.892	1.3190000000004
1	13327	3354.924	0.031999999999698
1	13340	3357.819	2.895
1	13344	3360.705	2.886
1	13350	3361.358	0.65300000000025
1	13354	3361.482	0.1239999999998
1	13361	3363.073	1.5909999999999
1	13370	3365.927	2.8540000000003
1	13373	3368.658	2.7309999999998
1	13379	3370.412	1.7540000000004
1	13382	3371.323	0.9109999999996
1	13390	3372.313	0.99000000000024
1	13400	3375.007	2.694
1	13406	3376.482	1.4749999999999
1	13409	3376.875	0.39300000000003
1	13412	3377.62	0.74499999999989
1	13415	3378.45	0.83000000000038
1	13419	3378.821	0.37099999999964
1	13427	3380.21	1.3890000000001
1	13436	3382.958	2.748
1	13441	3384.964	2.0059999999999
1	13446	3385.181	0.2170000000001
1	13447	3385.197	0.016000000000076
1	13451	3386.026	0.82900000000018
1	13458	3387.114	1.0879999999997
1	13469	3389.444	2.3299999999999
1	13478	3392.345	2.9010000000003
1	13481	3393.508	1.163
1	13490	3395.568	2.0599999999999
1	13499	3398.553	2.9849999999997
1	13505	3400.79	2.2370000000001
1	13512	3402.699	1.9090000000001
1	13516	3402.933	0.23399999999992
1	13520	3403.903	0.97000000000025
1	13526	3406.643	2.7399999999998
1	13529	3407.246	0.60300000000007
1	13541	3409.777	2.5309999999999
1	13547	3411.866	2.0889999999999
1	13553	3412.965	1.0990000000002
1	13559	3414.553	1.5879999999997
1	13564	3416.181	1.6280000000002
1	13572	3418.323	2.1419999999998
1	13577	3419.873	1.5500000000002
1	13580	3420.272	0.39899999999989
1	13586	3422.592	2.3200000000002
1	13595	3423.811	1.2190000000001
1	13601	3426.7	2.8890000000001
1	13604	3427.551	0.85099999999966
1	13611	3428.34	0.78900000000021
1	13616	3429.341	1.0009999999997
1	13625	3431.058	1.7170000000001
1	13631	3433.743	2.6849999999999
1	13634	3434.272	0.529
1	13637	3435.111	0.83899999999994
1	13649	3436.856	1.7450000000003
1	13655	3438.219	1.3629999999998
1	13660	3439.561	1.3420000000001
1	13664	3442.023	2.462
1	13672	3444.795	2.7719999999999
1	13676	3446.239	1.444
1	13682	3448.301	2.0619999999999
1	13691	3450.704	2.4030000000002
1	13700	3452.259	1.5549999999998
1	13705	3453.142	0.88300000000027
1	13709	3455.056	1.9139999999998
1	13715	3456.811	1.7550000000001
1	13722	3459.516	2.7049999999999
1	13724	3459.673	0.15700000000015
1	13736	3462.403	2.73
1	13742	3464.006	1.6029999999996
1	13744	3464.053	0.047000000000025
1	13748	3465.087	1.0340000000001
1	13753	3467.26	2.1730000000002
1	13760	3468.725	1.4649999999997
1	13772	3471.665	2.9400000000001
1	13777	3472.933	1.268
1	13784	3473.913	0.98000000000002
1	13787	3476.378	2.4650000000001
1	13796	3478.022	1.6439999999998
1	13802	3480.069	2.047
1	13808	3482.486	2.4169999999999
1	13814	3484.5	2.0140000000001
1	13820	3485.767	1.2670000000003
1	13823	3486.141	0.3739999999998
1	13829	3487.882	1.741
1	13838	3490.574	2.692
1	13841	3491.831	1.2570000000001
1	13850	3494.563	2.732
1	13853	3496.074	1.511
1	13859	3497.937	1.8629999999998
1	13865	3500.436	2.4990000000003
1	13868	3502.13	1.694
1	13872	3502.403	0.27300000000014
1	13881	3505.346	2.9429999999998
1	13889	3506.084	0.73800000000028
1	13898	3508.216	2.1319999999996
1	13901	3509.731	1.5150000000003
1	13907	3511.167	1.4359999999997
1	13912	3511.899	0.73199999999997
1	13919	3514.065	2.1660000000002
1	13922	3514.403	0.33800000000019
1	13934	3517.374	2.971
1	13940	3519.91	2.5359999999996
1	13943	3521.514	1.6040000000003
1	13948	3522.788	1.2739999999999
1	13955	3523.647	0.85899999999992
1	13964	3525.152	1.5050000000001
1	13970	3527.79	2.6379999999999
1	13973	3528.615	0.82500000000027
1	13979	3530.117	1.502
1	13982	3530.821	0.70399999999972
1	13988	3531.832	1.011
1	13994	3532.403	0.57100000000037
1	14006	3535.375	2.9719999999998
1	14012	3537.089	1.7139999999999
1	14018	3539.287	2.1980000000003
1	14021	3539.582	0.29499999999962
1	14024	3540.68	1.0980000000004
1	14033	3543.358	2.6779999999999
1	14036	3543.611	0.2529999999997
1	14039	3544.107	0.49600000000009
1	14051	3545.983	1.8760000000002
1	14057	3547.851	1.8679999999999
1	14063	3550.366	2.5149999999999
1	14069	3553.172	2.806
1	14072	3553.598	0.42599999999993
1	14075	3554.376	0.77800000000025
1	14086	3555.658	1.2819999999997
1	14087	3555.661	0.0030000000001564
1	14092	3555.87	0.20899999999983
1	14099	3556.549	0.67900000000009
1	14108	3557.992	1.4430000000002
1	14111	3558.747	0.75500000000011
1	14117	3561.377	2.6299999999997
1	14120	3562.35	0.97299999999996
1	14132	3565.124	2.7740000000003
1	14138	3568.048	2.924
1	14147	3569.398	1.3499999999999
1	14150	3570.079	0.68100000000004
1	14158	3570.954	0.875
1	14162	3573.283	2.3289999999997
1	14168	3574.103	0.82000000000016
1	14171	3575.245	1.1419999999998
1	14177	3576.681	1.4360000000001
1	14183	3578.406	1.7249999999999
1	14192	3581.394	2.9880000000003
1	14195	3582.091	0.69699999999966
1	14203	3583.151	1.0600000000004
1	14207	3583.94	0.78899999999976
1	14210	3585.023	1.0830000000001
1	14213	3585.325	0.30200000000013
1	14222	3586.404	1.0789999999997
1	14237	3589.068	2.6640000000002
1	14240	3589.964	0.89599999999973
1	14249	3591.08	1.116
1	14255	3593.913	2.8330000000001
1	14264	3596.098	2.1849999999999
1	14267	3597.648	1.5500000000002
1	14276	3599.98	2.3319999999999
1	14279	3600.35	0.36999999999989
1	14287	3601.743	1.393
1	14291	3602.098	0.35500000000002
1	14294	3602.799	0.70100000000002
1	14297	3603.225	0.42599999999993
1	14303	3604.31	1.085
1	14308	3605.455	1.145
1	14320	3608.297	2.8420000000001
1	14324	3609.089	0.79199999999992
1	14333	3610.506	1.4169999999999
1	14339	3612.94	2.4340000000002
1	14348	3615.387	2.4470000000001
1	14354	3617.638	2.2509999999997
1	14357	3618.502	0.86400000000003
1	14363	3619.987	1.4850000000001
1	14366	3620.546	0.5590000000002
1	14371	3621.111	0.5649999999996
1	14381	3622.419	1.308
1	14387	3624.635	2.2160000000003
1	14395	3626.215	1.5799999999999
1	14399	3628.875	2.6599999999999
1	14406	3631.368	2.4929999999999
1	14407	3631.463	0.095000000000255
1	14420	3633.168	1.7049999999999
1	14423	3634.995	1.8269999999998
1	14433	3637.88	2.8850000000002
1	14434	3637.95	0.070000000000164
1	14441	3639.543	1.5929999999998
1	14445	3640.157	0.61400000000003
1	14447	3640.318	0.16100000000006
1	14458	3642.08	1.7619999999997
1	14468	3644.398	2.3180000000002
1	14475	3646.723	2.3249999999998
1	14476	3646.814	0.090999999999894
1	14484	3648.035	1.221
1	14486	3648.169	0.13400000000001
1	14489	3648.913	0.74400000000014
1	14500	3649.492	0.57900000000018
1	14506	3650.138	0.64599999999973
1	14512	3651.155	1.0170000000003
1	14516	3651.987	0.83199999999988
1	14525	3654.874	2.8870000000002
1	14532	3655.931	1.0569999999998
1	14540	3658.614	2.683
1	14543	3659.157	0.54300000000012
1	14550	3661.448	2.2909999999997
1	14552	3661.632	0.1840000000002
1	14562	3663.02	1.3879999999999
1	14563	3663.037	0.01700000000028
1	14573	3665.468	2.431
1	14580	3668.319	2.8509999999997
1	14582	3668.424	0.10500000000002
1	14594	3671.226	2.8020000000001
1	14600	3673.548	2.3220000000001
1	14603	3674.625	1.0769999999998
1	14612	3677.352	2.7269999999999
1	14615	3678.241	0.88900000000012
1	14618	3679.469	1.2280000000001
1	14621	3679.759	0.28999999999996
1	14628	3681.73	1.971
1	14629	3681.819	0.088999999999942
1	14636	3683.274	1.4549999999999
1	14642	3685.324	2.0500000000002
1	14651	3687.788	2.4639999999999
1	14654	3688.238	0.45000000000027
1	14660	3690.5	2.2619999999997
1	14665	3692.657	2.1570000000002
1	14669	3694.336	1.6790000000001
1	14678	3696.09	1.7539999999999
1	14681	3696.364	0.27399999999989
1	14684	3698.165	1.8009999999999
1	14690	3699.31	1.145
1	14699	3701.913	2.6030000000001
1	14702	3702.852	0.93899999999985
1	14708	3704.582	1.73
1	14714	3705.862	1.2800000000002
1	14723	3708.491	2.6289999999999
1	14731	3709.253	0.76200000000017
1	14735	3709.489	0.23599999999988
1	14746	3711.735	2.2460000000001
1	14750	3712.974	1.239
1	14757	3714.741	1.7669999999998
1	14758	3714.82	0.079000000000178
1	14768	3717.676	2.8559999999998
1	14780	3720.309	2.6330000000003
1	14787	3722.181	1.8719999999998
1	14788	3722.232	0.050999999999931
1	14798	3723.366	1.134
1	14804	3726.302	2.9360000000001
1	14810	3728.346	2.0439999999999
1	14813	3728.829	0.48300000000017
1	14822	3730.211	1.3820000000001
1	14828	3733.111	2.8999999999996
1	14838	3734.715	1.6040000000003
1	14839	3734.789	0.074000000000069
1	14848	3736.648	1.8589999999999
1	14855	3737.462	0.81399999999985
1	14860	3737.759	0.29700000000003
1	14867	3738.968	1.2090000000003
1	14877	3740.644	1.6759999999999
1	14878	3740.695	0.050999999999931
1	14888	3742.372	1.6770000000001
1	14892	3743.906	1.5339999999997
1	14900	3746.288	2.3820000000001
1	14903	3747.559	1.2710000000002
1	14910	3749.219	1.6599999999999
1	14918	3751.445	2.2260000000001
1	14924	3754.136	2.6909999999998
1	14927	3755.276	1.1400000000003
1	14931	3757.081	1.8049999999998
1	14943	3759.165	2.0839999999998
1	14945	3759.295	0.13000000000011
1	14951	3761.697	2.402
1	14957	3762.829	1.1320000000001
1	14965	3764.84	2.011
1	14969	3766.255	1.415
1	14975	3768.362	2.107
1	14981	3770.535	2.1729999999998
1	14990	3771.11	0.57500000000027
1	14996	3773.097	1.9870000000001
1	15002	3775.651	2.5540000000001
1	15005	3776.358	0.70699999999988
1	15013	3778.633	2.2750000000001
1	15020	3780.534	1.9009999999998
1	15026	3783.399	2.8649999999998
1	15029	3784.18	0.7810000000004
1	15032	3784.643	0.46299999999974
1	15040	3785.579	0.93600000000015
1	15046	3786.353	0.77399999999989
1	15053	3788.623	2.27
1	15062	3790.822	2.1990000000001
1	15067	3792.831	2.009
1	15073	3793.48	0.64899999999989
1	15077	3796.065	2.585
1	15086	3798.935	2.8699999999999
1	15089	3800.53	1.5950000000003
1	15095	3802.478	1.9479999999999
1	15103	3803.98	1.502
1	15107	3804.831	0.85100000000011
1	15111	3805.689	0.85800000000017
1	15117	3806.629	0.9399999999996
1	15122	3807.202	0.57300000000032
1	15134	3809.908	2.7059999999997
1	15137	3812.483	2.5750000000003
1	15143	3813.868	1.3849999999998
1	15148	3814.97	1.1020000000003
1	15158	3817.787	2.817
1	15161	3818.454	0.66699999999992
1	15170	3820.115	1.6610000000001
1	15173	3820.278	0.16300000000001
1	15177	3820.852	0.57399999999961
1	15183	3822.664	1.8120000000004
1	15193	3824.651	1.9870000000001
1	15197	3826.394	1.7429999999999
1	15206	3829.003	2.6089999999999
1	15212	3831.983	2.98
1	15218	3834.275	2.2919999999999
1	15221	3835.67	1.395
1	15227	3838.172	2.502
1	15230	3838.533	0.36099999999988
1	15236	3840.583	2.0500000000002
1	15242	3842.138	1.5549999999998
1	15245	3842.672	0.53400000000011
1	15260	3845.591	2.9189999999999
1	15263	3846.606	1.0150000000003
1	15269	3848.452	1.846
1	15275	3851.088	2.636
1	15284	3852.608	1.52
1	15287	3852.953	0.3449999999998
1	15295	3855.409	2.4560000000001
1	15299	3856.469	1.0599999999999
1	15305	3859.418	2.9490000000001
1	15314	3862.069	2.6509999999998
1	15320	3864.629	2.5599999999999
1	15323	3865.698	1.069
1	15332	3867.969	2.2710000000002
1	15338	3870.928	2.9589999999998
1	15341	3872.507	1.5790000000002
1	15348	3873.919	1.4119999999998
1	15349	3873.963	0.044000000000324
1	15359	3876.064	2.1010000000001
1	15368	3878.639	2.5749999999998
1	15371	3879.381	0.74199999999973
1	15374	3880.326	0.94500000000016
1	15382	3881.828	1.502
1	15388	3882.044	0.21599999999989
1	15392	3882.313	0.26900000000023
1	15398	3883.576	1.2629999999999
1	15404	3884.36	0.78400000000011
1	15410	3885.578	1.2179999999998
1	15417	3886.941	1.3630000000003
1	15428	3889.87	2.9289999999996
1	15434	3892.703	2.8330000000001
1	15437	3893.122	0.41900000000032
1	15446	3895.77	2.6479999999997
1	15449	3896.011	0.24099999999999
1	15454	3897.534	1.5230000000001
1	15460	3898.026	0.49200000000019
1	15464	3899.124	1.098
1	15476	3901.354	2.23
1	15479	3902.628	1.2739999999999
1	15488	3905.049	2.4209999999998
1	15491	3907.205	2.1559999999999
1	15500	3910.034	2.8290000000002
1	15503	3911.636	1.6019999999999
1	15512	3914.042	2.4059999999999
1	15515	3915.011	0.96900000000005
1	15521	3916.048	1.0370000000003
1	15527	3917.25	1.2019999999998
1	15533	3918.483	1.2330000000002
1	15536	3918.793	0.30999999999995
1	15544	3920.35	1.5569999999998
1	15548	3920.64	0.28999999999996
1	15561	3923.309	2.6690000000003
1	15563	3923.495	0.18599999999969
1	15569	3924.844	1.3490000000002
1	15575	3925.698	0.85399999999981
1	15581	3926.163	0.46500000000015
1	15587	3928.515	2.3519999999999
1	15596	3930.66	2.145
1	15599	3931.098	0.4380000000001
1	15605	3932.996	1.8980000000001
1	15614	3935.374	2.3780000000002
1	15619	3937.694	2.3199999999997
1	15623	3937.971	0.27700000000004
1	15626	3940.028	2.0570000000002
1	15632	3942.176	2.1479999999997
1	15638	3944.762	2.5860000000002
1	15644	3946.286	1.5239999999999
1	15650	3947.669	1.3829999999998
1	15656	3950.564	2.8950000000004
1	15665	3952.954	2.3899999999999
1	15674	3954.63	1.6759999999999
1	15678	3955.622	0.99200000000019
1	15686	3958.158	2.5359999999996
1	15692	3959.524	1.366
1	15695	3959.802	0.27800000000025
1	15700	3961.167	1.3649999999998
1	15707	3963.783	2.616
1	15714	3965.128	1.3450000000003
1	15715	3965.171	0.04300000000012
1	15727	3967.005	1.8339999999998
1	15734	3969.992	2.9870000000001
1	15737	3972.444	2.4519999999998
1	15743	3974.296	1.8520000000003
1	15752	3977.039	2.7429999999999
1	15755	3979.48	2.4409999999998
1	15764	3980.976	1.4960000000001
1	15767	3982.75	1.7739999999999
1	15776	3984.944	2.194
1	15783	3987.483	2.5390000000002
1	15785	3987.658	0.17499999999973
1	15793	3989.982	2.3240000000001
1	15797	3991.325	1.3430000000003
1	15806	3993.307	1.982
1	15809	3995.601	2.2939999999999
1	15817	3997.22	1.6190000000001
1	15821	3997.696	0.47599999999966
1	15826	3998.925	1.2290000000003
1	15830	3999.156	0.23099999999977
1	15839	4001.224	2.0680000000002
1	15846	4004.085	2.8609999999999
1	15853	4006.471	2.386
1	15857	4007.64	1.1689999999999
1	15861	4009.393	1.7530000000002
1	15869	4010.306	0.91300000000001
1	15878	4011.929	1.623
1	15881	4012.831	0.90200000000004
1	15890	4015.046	2.2150000000001
1	15896	4015.824	0.77799999999979
1	15902	4018.716	2.8919999999998
1	15905	4020.702	1.9860000000003
1	15909	4020.908	0.20599999999968
1	15910	4020.94	0.032000000000153
1	15923	4023.931	2.991
1	15926	4024.593	0.66200000000026
1	15932	4025.531	0.93799999999965
1	15937	4026.156	0.625
1	15942	4028.94	2.7840000000001
1	15950	4030.896	1.9560000000001
1	15959	4032.409	1.5129999999999
1	15964	4034.082	1.6729999999998
1	15968	4035.036	0.95400000000018
1	15980	4036.879	1.8429999999998
1	15984	4038.138	1.259
1	15989	4038.736	0.59799999999996
1	15995	4040.706	1.9700000000003
1	16004	4041.828	1.1219999999998
1	16009	4044.183	2.355
1	16013	4045.429	1.2460000000001
1	16018	4046.954	1.5250000000001
1	16028	4049.316	2.3620000000001
1	16034	4050.66	1.3440000000001
1	16040	4053.559	2.8989999999999
1	16046	4055.938	2.3789999999999
1	16052	4058.417	2.4789999999998
1	16055	4061.279	2.8620000000001
1	16062	4062.446	1.1669999999999
1	16067	4064.186	1.7400000000002
1	16073	4066.267	2.0810000000001
1	16082	4068.287	2.02
1	16088	4071.146	2.8589999999999
1	16091	4072.011	0.86499999999978
1	16094	4072.885	0.87400000000025
1	16106	4075.639	2.7539999999999
1	16112	4078.037	2.3980000000001
1	16117	4078.647	0.60999999999967
1	16124	4080.357	1.71
1	16130	4082.594	2.2370000000001
1	16133	4083.653	1.0590000000002
1	16139	4084.956	1.3029999999999
1	16148	4086.682	1.7260000000001
1	16151	4088.083	1.4009999999998
1	16158	4090.342	2.259
1	16159	4090.36	0.018000000000029
1	16165	4091.664	1.3040000000001
1	16175	4092.677	1.0129999999999
1	16181	4094.504	1.8269999999998
1	16187	4096.832	2.3280000000004
1	16192	4097.06	0.22800000000007
1	16198	4097.534	0.47399999999925
1	16205	4099.529	1.9950000000008
1	16214	4101.744	2.2149999999992
1	16218	4103.509	1.7650000000003
1	16223	4106.457	2.9480000000003
1	16232	4107.955	1.4979999999996
1	16235	4108.364	0.40900000000056
1	16244	4110.423	2.0589999999993
1	16248	4112.229	1.8060000000005
1	16253	4114	1.7709999999997
1	16259	4115.638	1.6379999999999
1	16265	4118.455	2.817
1	16268	4118.842	0.38699999999972
1	16271	4119.062	0.22000000000025
1	16274	4119.524	0.46200000000044
1	16286	4120.259	0.73499999999967
1	16293	4122.038	1.7790000000005
[...]
1	197714	49159.274	1.765999999996
1	197720	49162.126	2.8520000000062
1	197726	49163.175	1.0489999999991
1	197729	49163.933	0.75800000000163
1	197735	49165.36	1.426999999996
1	197741	49166.382	1.0219999999972
1	197750	49169.011	2.6290000000008
1	197753	49169.362	0.35100000000239
1	197756	49169.986	0.62400000000343
1	197762	49170.773	0.78699999999662
1	197771	49172.505	1.7320000000036
1	197780	49174.068	1.5629999999946
1	197785	49174.613	0.54499999999825
1	197789	49176.011	1.398000000001
1	197794	49176.972	0.96100000000297
1	197801	49179.904	2.9320000000007
1	197804	49180.826	0.92199999999866
1	197813	49182.834	2.0080000000016
1	197822	49185.685	2.8509999999951
1	197825	49186.623	0.93800000000192
1	197828	49187.369	0.74599999999919
1	197834	49189.196	1.8270000000048
1	197843	49191.615	2.4189999999944
1	197849	49193.66	2.0450000000055
1	197852	49194.254	0.59399999999732
1	197861	49195.701	1.4470000000001
1	197867	49198.146	2.4449999999997
1	197870	49198.565	0.41900000000169
1	197879	49201.239	2.6739999999991
1	197888	49204.058	2.8190000000031
1	197891	49205.208	1.1499999999942
1	197901	49207.327	2.1189999999988
1	197902	49207.406	0.07900000000518
1	197909	49209.412	2.0060000000012
1	197919	49211.352	1.9399999999951
1	197921	49211.468	0.1160000000018
1	197928	49213.279	1.8110000000015
1	197929	49213.28	0.00099999999656575
1	197936	49214.461	1.1810000000041
1	197944	49215.209	0.74799999999959
1	197955	49217.272	2.0630000000019
1	197957	49217.456	0.18399999999383
1	197963	49219.512	2.0560000000041
1	197972	49220.553	1.0409999999974
1	197975	49220.873	0.31999999999971
1	197981	49222.827	1.9539999999979
1	197990	49225.029	2.2020000000048
1	197995	49227.959	2.9300000000003
1	197999	49230.585	2.6259999999966
1	198008	49231.269	0.68400000000111
1	198014	49233.807	2.5380000000005
1	198017	49234.773	0.96600000000035
1	198023	49237.201	2.4279999999999
1	198026	49237.429	0.22800000000279
1	198029	49237.854	0.42499999999563
1	198040	49239.679	1.8250000000044
1	198050	49241.584	1.9049999999988
1	198056	49243.208	1.6239999999962
1	198062	49245.348	2.1399999999994
1	198065	49245.657	0.30900000000111
1	198070	49246.038	0.38100000000122
1	198075	49246.828	0.79000000000087
1	198085	49247.925	1.0970000000016
1	198090	49249.708	1.7829999999958
1	198098	49251.767	2.0590000000011
1	198101	49252.811	1.0440000000017
1	198106	49254.274	1.4629999999961
1	198110	49254.545	0.27100000000064
1	198116	49256.942	2.3970000000045
1	198122	49258.345	1.4029999999984
1	198128	49260.142	1.7969999999987
1	198131	49261.091	0.94900000000052
1	198137	49261.932	0.84100000000035
1	198143	49263.031	1.099000000002
1	198149	49265.704	2.6729999999952
1	198153	49265.914	0.2100000000064
1	198155	49266.022	0.10800000000017
1	198166	49267.689	1.666999999994
1	198173	49269.155	1.4660000000003
1	198182	49270.725	1.5699999999997
1	198187	49271.126	0.4010000000053
1	198194	49272.975	1.8489999999947
1	198203	49275.009	2.0339999999997
1	198212	49277.306	2.2970000000059
1	198218	49279.179	1.8729999999996
1	198224	49281.232	2.0529999999999
1	198227	49282.1	0.86799999999494
1	198230	49282.543	0.4429999999993
1	198238	49284.001	1.458000000006
1	198248	49286.516	2.5149999999994
1	198254	49288.229	1.7129999999961
1	198257	49289.637	1.4080000000031
1	198263	49290.941	1.3039999999964
1	198272	49293.265	2.3240000000005
1	198275	49295.185	1.9199999999983
1	198281	49297.942	2.7570000000051
1	198287	49300.12	2.1779999999999
1	198293	49301.962	1.8419999999969
1	198300	49304.703	2.7410000000018
1	198301	49304.78	0.076999999997497
1	198310	49306.755	1.9750000000058
1	198313	49306.867	0.11199999999371
1	198320	49307.9	1.0330000000031
1	198324	49308.701	0.80099999999948
1	198335	49311.361	2.6600000000035
1	198342	49311.783	0.42199999999866
1	198350	49313.96	2.176999999996
1	198353	49316.594	2.6340000000055
1	198359	49317.252	0.65799999999581
1	198362	49317.722	0.47000000000116
1	198374	49319.369	1.6469999999972
1	198379	49320.502	1.1330000000016
1	198386	49322.024	1.5219999999972
1	198392	49324.485	2.461000000003
1	198398	49326.865	2.3799999999974
1	198401	49328.847	1.9820000000036
1	198405	49329.256	0.40899999999965
1	198407	49329.368	0.11200000000099
1	198413	49330.374	1.0060000000012
1	198416	49330.654	0.27999999999884
1	198427	49331.9	1.2459999999992
1	198437	49332.742	0.84199999999691
1	198443	49335.113	2.3709999999992
1	198452	49337.631	2.5180000000037
1	198455	49340.565	2.9340000000011
1	198464	49343.477	2.9119999999966
1	198465	49343.542	0.065000000002328
1	198470	49344.774	1.2319999999963
1	198482	49347.769	2.9950000000026
1	198486	49348.826	1.0570000000007
1	198494	49350.215	1.3890000000029
1	198500	49352.539	2.3240000000005
1	198503	49354.75	2.2109999999957
1	198512	49357.251	2.5010000000038
1	198518	49358.047	0.79599999999482
1	198520	49358.109	0.062000000005355
1	198530	49359.987	1.877999999997
1	198536	49362.058	2.0710000000036
1	198539	49363.671	1.6129999999976
1	198542	49364.088	0.41700000000128
1	198548	49364.93	0.84199999999691
1	198551	49365.268	0.33800000000338
1	198557	49366.307	1.038999999997
1	198560	49366.864	0.5570000000007
1	198566	49368.337	1.4729999999981
1	198572	49369.403	1.0659999999989
1	198575	49369.875	0.47200000000157
1	198579	49370.948	1.073000000004
1	198590	49373.596	2.6479999999938
1	198596	49374.383	0.7870000000039
1	198602	49375.565	1.1820000000007
1	198605	49376.083	0.51799999999639
1	198614	49378.473	2.3899999999994
1	198621	49380.336	1.8630000000048
1	198622	49380.348	0.011999999995169
1	198626	49381.695	1.3470000000016
1	198632	49384.626	2.9310000000041
1	198638	49387.38	2.7540000000008
1	198647	49390.255	2.875
1	198656	49393.042	2.7869999999966
1	198662	49394.926	1.8839999999982
1	198668	49395.91	0.98400000000402
1	198681	49398.253	2.3430000000008
1	198682	49398.266	0.01299999999901
1	198693	49399.633	1.3669999999984
1	198701	49402.312	2.6789999999964
1	198707	49403.121	0.80900000000111
1	198710	49403.348	0.22699999999895
1	198713	49403.659	0.31100000000151
1	198722	49404.934	1.2750000000015
1	198731	49407.222	2.2880000000005
1	198739	49408.685	1.4629999999961
1	198743	49410.187	1.5020000000004
1	198749	49411.875	1.6880000000019
1	198758	49412.976	1.1010000000024
1	198761	49413.932	0.95599999999831
1	198764	49414.257	0.32499999999709
1	198776	49416.28	2.023000000001
1	198779	49416.887	0.60700000000361
1	198782	49417.753	0.8660000000018
1	198791	49420.594	2.8410000000003
1	198800	49422.31	1.7159999999931
1	198806	49424.851	2.5410000000047
1	198812	49426.194	1.3430000000008
1	198818	49428.092	1.898000000001
1	198824	49429.202	1.1099999999933
1	198831	49431.635	2.4330000000045
1	198833	49431.738	0.10299999999552
1	198842	49434.094	2.356000000007
1	198847	49436.606	2.5119999999952
1	198854	49439.076	2.4700000000012
1	198860	49441.563	2.487000000001
1	198866	49444.306	2.7430000000022
1	198872	49445.876	1.5699999999997
1	198877	49447.889	2.012999999999
1	198881	49448.9	1.0109999999986
1	198887	49450.393	1.4930000000022
1	198893	49451.362	0.96899999999732
1	198898	49453.198	1.836000000003
1	198902	49454.43	1.2319999999963
1	198909	49455.532	1.101999999999
1	198910	49455.629	0.097000000001572
1	198918	49457.087	1.4579999999987
1	198925	49457.719	0.63200000000506
1	198929	49458.467	0.74799999999959
1	198932	49458.811	0.34399999999732
1	198940	49459.798	0.98700000000099
1	198945	49460.916	1.1179999999949
1	198957	49463.303	2.3870000000024
1	198958	49463.357	0.054000000003725
1	198962	49463.999	0.64199999999983
1	198971	49465.787	1.7880000000005
1	198980	49467.48	1.6929999999993
1	198988	49468.247	0.76699999999983
1	198999	49471.079	2.8319999999949
1	199001	49471.2	0.12100000000646
1	199004	49472.419	1.2189999999973
1	199008	49473.004	0.58499999999913
1	199016	49475.247	2.2430000000022
1	199025	49478.194	2.9470000000001
1	199034	49481.003	2.8090000000011
1	199037	49482.175	1.1719999999987
1	199040	49483.545	1.3699999999953
1	199046	49484.075	0.53000000000611
1	199052	49486.18	2.1049999999959
1	199058	49487.202	1.0219999999972
1	199070	49489.534	2.3320000000022
1	199076	49491.893	2.359000000004
1	199079	49493.172	1.278999999995
1	199088	49495.287	2.1150000000052
1	199091	49497.086	1.7989999999991
1	199097	49499.213	2.1270000000004
1	199107	49501.476	2.262999999999
1	199109	49501.595	0.11899999999878
1	199115	49503.156	1.5610000000015
1	199121	49505.422	2.265999999996
1	199126	49506.95	1.5280000000057
1	199130	49508.223	1.2729999999938
1	199136	49509.946	1.7230000000054
1	199139	49510.203	0.25699999999779
1	199149	49512.878	2.6750000000029
1	199150	49512.973	0.094999999993888
1	199158	49513.889	0.91600000000471
1	199160	49513.984	0.095000000001164
1	199175	49515.197	1.2129999999961
1	199179	49515.793	0.59599999999773
1	199181	49515.935	0.14199999999983
1	199184	49516.137	0.20200000000477
1	199192	49517.543	1.4059999999954
1	199202	49519.778	2.2350000000006
1	199210	49520.688	0.91000000000349
1	199214	49521.104	0.41599999999744
1	199220	49523.101	1.997000000003
1	199229	49525.827	2.7259999999951
1	199238	49528.657	2.8300000000017
1	199244	49531.515	2.8580000000002
1	199247	49531.871	0.35599999999977
1	199254	49534.371	2.5
1	199255	49534.433	0.062000000005355
1	199262	49537.044	2.6109999999971
1	199266	49537.384	0.33999999999651
1	199274	49538.88	1.4960000000065
1	199283	49541.537	2.6569999999992
1	199286	49542.743	1.2059999999983
1	199292	49545.238	2.4949999999953
1	199301	49547.753	2.5150000000067
1	199310	49549.279	1.525999999998
1	199313	49550.521	1.2419999999984
1	199322	49552.949	2.4279999999999
1	199325	49554.316	1.3669999999984
1	199334	49556.034	1.7180000000008
1	199340	49556.895	0.86100000000442
1	199346	49557.746	0.85099999999511
1	199351	49559.682	1.9360000000015
1	199355	49561.85	2.1679999999978
1	199361	49563.676	1.8260000000009
1	199370	49566.275	2.599000000002
1	199376	49568.833	2.5579999999973
1	199382	49569.631	0.7980000000025
1	199388	49572.582	2.9510000000009
1	199391	49575.103	2.5210000000006
1	199397	49576.462	1.3589999999967
1	199403	49578.223	1.7609999999986
1	199406	49579.101	0.87800000000425
1	199412	49579.776	0.67499999999563
1	199421	49582.589	2.8130000000019
1	199426	49583.195	0.60599999999977
1	199430	49583.54	0.34500000000116
1	199442	49586.023	2.4830000000002
1	199448	49587.72	1.6970000000001
1	199454	49590.635	2.9150000000009
1	199457	49591.003	0.36800000000221
1	199460	49591.65	0.64699999999721
1	199469	49594.299	2.6489999999976
1	199475	49595.758	1.4590000000026
1	199484	49598.579	2.8209999999963
1	199490	49599.132	0.55299999999988
1	199495	49601.203	2.0710000000036
1	199499	49602.364	1.1610000000001
1	199505	49605.15	2.7860000000001
1	199510	49606.525	1.375
1	199514	49608.984	2.4590000000026
1	199526	49611.587	2.6029999999955
1	199532	49612.761	1.1739999999991
1	199535	49613.381	0.62000000000262
1	199544	49615.721	2.3399999999965
1	199549	49617.531	1.8100000000049
1	199556	49620.18	2.6489999999976
1	199559	49620.486	0.30600000000413
1	199562	49620.884	0.39799999999377
1	199568	49623.037	2.1530000000057
1	199577	49625.734	2.6970000000001
1	199583	49627.132	1.3979999999938
1	199589	49629.862	2.7300000000032
1	199595	49632.694	2.8320000000022
1	199600	49633.327	0.63299999999435
1	199607	49634.951	1.6240000000034
1	199613	49637.134	2.1829999999973
1	199619	49639.178	2.0440000000017
1	199625	49641.253	2.0750000000044
1	199632	49642.424	1.1709999999948
1	199639	49643.612	1.1880000000019
1	199646	49646.081	2.4689999999973
1	199649	49647.608	1.5270000000019
1	199655	49650.304	2.6960000000036
1	199658	49650.693	0.38899999999558
1	199667	49653.397	2.7040000000052
1	199673	49655.827	2.429999999993
1	199682	49658.496	2.6690000000017
1	199688	49660.084	1.5880000000034
1	199694	49662.773	2.6889999999985
1	199698	49664.466	1.6929999999993
1	199706	49665.556	1.0900000000038
1	199709	49666.602	1.0459999999948
1	199715	49667.596	0.99399999999878
1	199720	49668.519	0.9230000000025
1	199730	49670.451	1.9320000000007
1	199733	49673.04	2.5889999999999
1	199739	49674.694	1.6540000000023
1	199745	49675.478	0.78399999999965
1	199751	49676.476	0.99799999999959
1	199758	49678.014	1.5380000000005
1	199766	49680.615	2.6009999999951
1	199769	49681.638	1.023000000001
1	199775	49683.99	2.351999999999
1	199781	49685.611	1.6210000000065
1	199785	49687.012	1.400999999998
1	199788	49687.113	0.10099999999511
1	199796	49687.896	0.78300000000309
1	199802	49689.996	2.0999999999985
1	199808	49692.694	2.698000000004
1	199814	49693.21	0.51599999999598
1	199817	49693.886	0.67599999999948
1	199820	49694.154	0.26800000000367
1	199825	49695.509	1.3549999999959
1	199829	49696.808	1.2990000000063
1	199832	49698.136	1.3279999999941
1	199841	49700.002	1.8660000000018
1	199851	49702.85	2.8479999999981
1	199856	49705.237	2.3870000000024
1	199861	49705.592	0.3550000000032
1	199872	49708.03	2.4379999999946
1	199875	49708.191	0.16100000000006
1	199877	49708.376	0.18500000000495
1	199885	49710.142	1.765999999996
1	199889	49710.473	0.33099999999831
1	199894	49712.991	2.5180000000037
1	199900	49714.371	1.3799999999974
1	199907	49716.21	1.8389999999999
1	199910	49717.37	1.1600000000035
1	199919	49720.169	2.7989999999991
1	199924	49721.837	1.6679999999978
1	199925	49721.873	0.036000000000058
1	199926	49721.937	0.063999999998487
1	199939	49723.815	1.8780000000042
1	199949	49725.428	1.6129999999976
1	199952	49726.293	0.86499999999796
1	199961	49728.15	1.8570000000036
1	199965	49728.554	0.40400000000227
1	199970	49729.245	0.69099999999889
1	199982	49731.479	2.2339999999967
1	199990	49734.106	2.6270000000004
1	199994	49734.721	0.61499999999796
1	200000	49736.741	2.0200000000041
1	200003	49737.633	0.89199999999983
1	200009	49738.575	0.94200000000274
1	200012	49740.088	1.512999999999
1	200018	49740.619	0.5309999999954
1	200030	49742.7	2.0810000000056
1	200033	49744.018	1.3179999999993
1	200039	49744.866	0.84799999999814
1	200047	49745.537	0.6710000000021
1	200049	49745.609	0.072000000000116
1	200063	49748.211	2.601999999999
1	200069	49750.245	2.0339999999997
1	200075	49751.241	0.99599999999919
1	200083	49752.5	1.2589999999982
1	200090	49754.569	2.0690000000031
1	200096	49756.753	2.1840000000011
1	200100	49758.764	2.0109999999986
1	200105	49760.124	1.3600000000006
1	200117	49762.656	2.5319999999992
1	200123	49765.536	2.8799999999974
1	200129	49766.54	1.0040000000008
1	200138	49768.993	2.4530000000013
1	200143	49770.889	1.8960000000006
1	200150	49772.197	1.3079999999973
1	200156	49775.016	2.8190000000031
1	200160	49776.932	1.9159999999974
1	200164	49777.197	0.26499999999942
1	200174	49779.408	2.211000000003
1	200180	49780.95	1.5420000000013
1	200184	49783.05	2.0999999999985
1	200185	49783.075	0.025000000001455
1	200192	49784.077	1.0019999999931
1	200200	49785.302	1.2250000000058
1	200207	49786.153	0.85099999999511
1	200216	49788.306	2.1530000000057
1	200222	49790.939	2.6329999999944
1	200225	49792.064	1.125
1	200228	49792.324	0.26000000000204
1	200240	49794.664	2.3400000000038
1	200245	49795.627	0.9629999999961
1	200252	49797.799	2.1719999999987
1	200257	49798.602	0.80299999999988
1	200264	49800.606	2.0040000000008
1	200270	49801.616	1.010000000002
1	200273	49804.065	2.4490000000005
1	200282	49806.835	2.7699999999968
1	200285	49809.352	2.5169999999998
1	200294	49812.096	2.7439999999988
1	200300	49813.176	1.0800000000017
1	200303	49813.47	0.29400000000169
1	200309	49816.236	2.7660000000033
1	200315	49818.959	2.7229999999981
1	200324	49820.602	1.6429999999964
1	200327	49821.908	1.3060000000041
1	200336	49823.907	1.9989999999962
1	200339	49824.138	0.23099999999977
1	200345	49825.082	0.94400000000314
1	200354	49827.154	2.0720000000001
1	200357	49829.81	2.6559999999954
1	200366	49832.101	2.2910000000047
1	200370	49832.308	0.20700000000215
1	200372	49832.478	0.16999999999825
1	200375	49833.915	1.4369999999981
1	200381	49835.393	1.4780000000028
1	200387	49836.811	1.4179999999978
1	200391	49838.429	1.6180000000022
1	200399	49839.027	0.59799999999814
1	200408	49841.173	2.1460000000006
1	200411	49842.168	0.99499999999534
1	200414	49842.807	0.63900000000285
1	200417	49843.136	0.3289999999979
1	200427	49843.603	0.46700000000419
1	200429	49843.737	0.1339999999982
1	200438	49845.625	1.887999999999
1	200444	49846.485	0.86000000000058
1	200447	49846.764	0.27900000000227
1	200459	49849.13	2.3660000000018
1	200462	49850.29	1.1599999999962
1	200474	49852.247	1.9570000000022
1	200482	49855.16	2.9130000000005
1	200488	49856.254	1.0939999999973
1	200492	49856.829	0.57499999999709
1	200504	49858.869	2.0400000000009
1	200510	49860.862	1.9930000000022
1	200513	49861.762	0.90000000000146
1	200523	49864.2	2.4380000000019
1	200524	49864.219	0.019000000000233
1	200530	49864.628	0.40899999999965
1	200537	49865.71	1.0819999999949
1	200546	49867.024	1.3139999999985
1	200550	49868.293	1.2690000000002
1	200551	49868.383	0.090000000003783
1	200555	49869.37	0.98700000000099
1	200564	49871.19	1.8199999999997
1	200571	49873.556	2.3660000000018
1	200576	49875.107	1.5509999999995
1	200588	49877.374	2.2669999999998
1	200591	49877.922	0.54799999999523
1	200596	49878.51	0.58800000000338
1	200607	49880.532	2.0219999999972
1	200609	49880.67	0.13799999999901
1	200615	49882.225	1.5550000000003
1	200618	49883.211	0.98600000000442
1	200624	49884.469	1.2580000000016
1	200627	49885.223	0.75399999999354
1	200634	49886.001	0.7780000000057
1	200637	49886.192	0.19099999999889
1	200638	49886.206	0.013999999995576
1	200645	49886.86	0.65400000000227
1	200654	49888.52	1.6600000000035
1	200657	49889.768	1.2479999999996
1	200662	49890.412	0.64400000000023
1	200672	49893.107	2.6949999999997
1	200680	49895.633	2.525999999998
1	200684	49896.44	0.8070000000007
1	200694	49898.163	1.7229999999981
1	200695	49898.199	0.036000000000058
1	200705	49899.882	1.6829999999973
1	200708	49900.747	0.86500000000524
1	200717	49903.739	2.9919999999984
1	200723	49904.776	1.0369999999966
1	200726	49905.028	0.25200000000041
1	200729	49905.322	0.29400000000169
1	200741	49907.576	2.2540000000008
1	200747	49909.307	1.7309999999998
1	200750	49909.985	0.67799999999988
1	200759	49911.641	1.6560000000027
1	200765	49913.941	2.2999999999956
1	200777	49916.806	2.8650000000052
1	200780	49917.38	0.57400000000052
1	200786	49918.562	1.1819999999934
1	200795	49921.05	2.4880000000048
1	200801	49922.6	1.5499999999956
1	200810	49924.485	1.885000000002
1	200816	49926.799	2.3139999999985
1	200819	49927.27	0.47100000000501
1	200822	49928.753	1.4830000000002
1	200825	49929.144	0.39099999999598
1	200834	49930.734	1.5900000000038
1	200843	49933.058	2.3240000000005
1	200846	49933.613	0.55499999999302
1	200855	49936.577	2.9639999999999
1	200861	49937.247	0.67000000000553
1	200867	49939.49	2.2429999999949
1	200876	49941.027	1.5370000000039
1	200879	49942.666	1.6389999999956
1	200882	49943.164	0.49800000000687
1	200891	49945.26	2.0959999999977
1	200897	49947.946	2.6860000000015
1	200900	49948.229	0.28299999999581
1	200909	49950.955	2.7260000000024
1	200913	49952.51	1.5550000000003
1	200918	49953.578	1.0679999999993
1	200930	49955.644	2.0659999999989
1	200933	49957.605	1.961000000003
1	200938	49958.89	1.2849999999962
1	200948	49961.888	2.9979999999996
1	200951	49962.595	0.70700000000215
1	200957	49964.048	1.4530000000013
1	200963	49965.7	1.6520000000019
1	200968	49966.042	0.34199999999691
1	200978	49967.45	1.4080000000031
1	200981	49969.816	2.3659999999945
1	200987	49970.797	0.98099999999977
1	200990	49971.227	0.43000000000029
1	201002	49973.247	2.0200000000041
1	201005	49973.794	0.54699999999866
1	201014	49975.548	1.7540000000008
1	201018	49976.853	1.3050000000003
1	201023	49977.418	0.56499999999505
1	201029	49979.513	2.0950000000012
1	201038	49981.735	2.2220000000016
1	201041	49982.161	0.42599999999948
1	201048	49983.52	1.359000000004
1	201056	49986.297	2.7769999999946
1	201059	49988.614	2.3170000000027
1	201065	49990.122	1.5080000000016
1	201069	49990.395	0.27300000000105
1	201071	49990.521	0.12599999999657
1	201074	49990.825	0.30400000000373
1	201084	49993.231	2.4059999999954
1	201090	49995.281	2.0500000000029
1	201094	49995.527	0.24599999999919
1	201101	49996.637	1.1100000000006
1	201107	49997.34	0.70300000000134
1	201112	49997.545	0.20499999999447
1	201116	49998.401	0.85599999999977

